4E4N
 OpenBabel11252210453D

 48 51  0  0  1  0  0  0  0  0999 V2000
    4.0954    1.0149   -1.7344 C   0  0  0  0  0  0  0  0  0  0  0  0
    4.3943    1.1833   -0.2398 C   0  0  0  0  0  0  0  0  0  0  0  0
    5.8884    1.4868   -0.0551 C   0  0  0  0  0  0  0  0  0  0  0  0
    3.5694    2.3282    0.3574 C   0  0  0  0  0  0  0  0  0  0  0  0
    4.1186   -0.0593    0.4739 O   0  0  0  0  0  0  0  0  0  0  0  0
    2.8205   -0.5087    0.4065 C   0  0  0  0  0  0  0  0  0  0  0  0
    1.9275    0.0610   -0.1991 O   0  0  0  0  0  0  0  0  0  0  0  0
    2.6037   -1.6974    1.0960 N   0  0  0  0  0  0  0  0  0  0  0  0
    1.3706   -2.4951    0.9808 C   0  0  2  0  0  0  0  0  0  0  0  0
    1.3088   -3.2543   -0.3724 C   0  0  0  0  0  0  0  0  0  0  0  0
   -0.0674   -2.9505   -0.9976 C   0  0  0  0  0  0  0  0  0  0  0  0
   -0.5301   -1.6314   -0.3466 C   0  0  2  0  0  0  0  0  0  0  0  0
    0.0908   -1.6261    1.0639 C   0  0  0  0  0  0  0  0  0  0  0  0
   -1.9934   -1.4170   -0.3110 N   0  0  0  0  0  0  0  0  0  0  0  0
   -3.0400   -2.3339   -0.2848 C   0  0  0  0  0  0  0  0  0  0  0  0
   -4.2102   -1.7592   -0.1544 N   0  0  0  0  0  0  0  0  0  0  0  0
   -3.9645   -0.4146   -0.0738 C   0  0  0  0  0  0  0  0  0  0  0  0
   -2.5881   -0.1822   -0.1561 C   0  0  0  0  0  0  0  0  0  0  0  0
   -2.1504    1.1643   -0.0516 C   0  0  0  0  0  0  0  0  0  0  0  0
   -0.8867    1.7945   -0.0556 C   0  0  0  0  0  0  0  0  0  0  0  0
   -1.1096    3.1365    0.0940 C   0  0  0  0  0  0  0  0  0  0  0  0
   -2.4616    3.3661    0.1938 N   0  0  0  0  0  0  0  0  0  0  0  0
   -3.1319    2.1591    0.1105 C   0  0  0  0  0  0  0  0  0  0  0  0
   -4.4824    1.9358    0.1805 N   0  0  0  0  0  0  0  0  0  0  0  0
   -4.8529    0.6880    0.0922 C   0  0  0  0  0  0  0  0  0  0  0  0
    3.4068   -2.1946    1.4749 H   0  0  0  0  0  0  0  0  0  0  0  0
    1.3614   -3.2196    1.8133 H   0  0  0  0  0  0  0  0  0  0  0  0
    2.1129   -2.8832   -1.0173 H   0  0  0  0  0  0  0  0  0  0  0  0
    1.4776   -4.3310   -0.2477 H   0  0  0  0  0  0  0  0  0  0  0  0
   -0.7819   -3.7467   -0.7671 H   0  0  0  0  0  0  0  0  0  0  0  0
   -0.0224   -2.8715   -2.0914 H   0  0  0  0  0  0  0  0  0  0  0  0
   -0.1070   -0.7975   -0.9276 H   0  0  0  0  0  0  0  0  0  0  0  0
   -0.6319   -2.0286    1.7817 H   0  0  0  0  0  0  0  0  0  0  0  0
    0.3401   -0.6122    1.3936 H   0  0  0  0  0  0  0  0  0  0  0  0
   -2.9144   -3.4040   -0.3563 H   0  0  0  0  0  0  0  0  0  0  0  0
    0.0685    1.3036   -0.1389 H   0  0  0  0  0  0  0  0  0  0  0  0
   -0.3511    3.9030    0.1351 H   0  0  0  0  0  0  0  0  0  0  0  0
   -5.9091    0.4813    0.1520 H   0  0  0  0  0  0  0  0  0  0  0  0
   -2.9189    4.2657    0.3206 H   0  0  0  0  0  0  0  0  0  0  0  0
    6.1261    1.5870    1.0038 H   0  0  0  0  0  0  0  0  0  0  0  0
    6.1719    2.4096   -0.5626 H   0  0  0  0  0  0  0  0  0  0  0  0
    6.4923    0.6723   -0.4550 H   0  0  0  0  0  0  0  0  0  0  0  0
    4.3450    1.9190   -2.2902 H   0  0  0  0  0  0  0  0  0  0  0  0
    3.0393    0.7980   -1.8916 H   0  0  0  0  0  0  0  0  0  0  0  0
    4.6718    0.1865   -2.1462 H   0  0  0  0  0  0  0  0  0  0  0  0
    3.7735    2.4274    1.4232 H   0  0  0  0  0  0  0  0  0  0  0  0
    3.8007    3.2765   -0.1286 H   0  0  0  0  0  0  0  0  0  0  0  0
    2.5041    2.1342    0.2379 H   0  0  0  0  0  0  0  0  0  0  0  0
  1  2  1  0  0  0  0
  2  3  1  0  0  0  0
  2  4  1  0  0  0  0
  2  5  1  0  0  0  0
  6  8  1  0  0  0  0
  6  5  1  0  0  0  0
  6  7  2  0  0  0  0
  9  8  1  0  0  0  0
  9 27  1  6  0  0  0
 10 11  1  0  0  0  0
 10  9  1  0  0  0  0
 11 12  1  0  0  0  0
 12 13  1  0  0  0  0
 12 14  1  0  0  0  0
 12 32  1  1  0  0  0
 13  9  1  0  0  0  0
 15 14  1  0  0  0  0
 15 16  2  0  0  0  0
 17 18  2  0  0  0  0
 17 25  1  0  0  0  0
 17 16  1  0  0  0  0
 18 19  1  0  0  0  0
 18 14  1  0  0  0  0
 19 20  1  0  0  0  0
 19 23  2  0  0  0  0
 20 21  2  0  0  0  0
 21 22  1  0  0  0  0
 23 22  1  0  0  0  0
 23 24  1  0  0  0  0
 25 24  2  0  0  0  0
 26  8  1  0  0  0  0
 28 10  1  0  0  0  0
 29 10  1  0  0  0  0
 30 11  1  0  0  0  0
 31 11  1  0  0  0  0
 33 13  1  0  0  0  0
 34 13  1  0  0  0  0
 35 15  1  0  0  0  0
 36 20  1  0  0  0  0
 37 21  1  0  0  0  0
 38 25  1  0  0  0  0
 39 22  1  0  0  0  0
 40  3  1  0  0  0  0
 41  3  1  0  0  0  0
 42  3  1  0  0  0  0
 43  1  1  0  0  0  0
 44  1  1  0  0  0  0
 45  1  1  0  0  0  0
 46  4  1  0  0  0  0
 47  4  1  0  0  0  0
 48  4  1  0  0  0  0
M  END
>  <charge>
0

>  <pKi>
9.05

$$$$
