4E4L
 OpenBabel11252210453D

 42 45  0  0  0  0  0  0  0  0999 V2000
   -0.2359   -3.2656    0.0015 C   0  0  0  0  0  0  0  0  0  0  0  0
    0.1234   -1.7783    0.0005 C   0  0  0  0  0  0  0  0  0  0  0  0
   -0.4082   -1.1004   -1.3000 C   0  0  0  0  0  0  0  0  0  0  0  0
   -1.8771   -0.6747   -1.2212 C   0  0  0  0  0  0  0  0  0  0  0  0
   -2.1415    0.0932    0.0042 N   0  0  0  0  0  0  0  0  0  0  0  0
   -1.8735   -0.6661    1.2251 C   0  0  0  0  0  0  0  0  0  0  0  0
   -0.4042   -1.0992    1.3017 C   0  0  0  0  0  0  0  0  0  0  0  0
   -3.8514    0.3770    0.0597 S   0  0  0  0  0  0  0  0  0  0  0  0
   -4.6375   -0.5775   -0.7924 O   0  0  0  0  0  0  0  0  0  0  0  0
   -4.3383    0.7018    1.4454 O   0  0  0  0  0  0  0  0  0  0  0  0
   -3.7973    1.9671   -0.8165 C   0  0  0  0  0  0  0  0  0  0  0  0
    1.6147   -1.5938   -0.0018 N   0  0  0  0  0  0  0  0  0  0  0  0
    2.6130   -2.5626   -0.0028 C   0  0  0  0  0  0  0  0  0  0  0  0
    3.8158   -2.0485   -0.0023 N   0  0  0  0  0  0  0  0  0  0  0  0
    3.6481   -0.6922   -0.0011 C   0  0  0  0  0  0  0  0  0  0  0  0
    2.2835   -0.3822   -0.0005 C   0  0  0  0  0  0  0  0  0  0  0  0
    1.9448    1.0014    0.0023 C   0  0  0  0  0  0  0  0  0  0  0  0
    0.7322    1.7291    0.0058 C   0  0  0  0  0  0  0  0  0  0  0  0
    1.0567    3.0574    0.0087 C   0  0  0  0  0  0  0  0  0  0  0  0
    2.4234    3.1894    0.0070 N   0  0  0  0  0  0  0  0  0  0  0  0
    2.9991    1.9328    0.0034 C   0  0  0  0  0  0  0  0  0  0  0  0
    4.3332    1.6258    0.0013 N   0  0  0  0  0  0  0  0  0  0  0  0
    4.6150    0.3536    0.0002 C   0  0  0  0  0  0  0  0  0  0  0  0
    0.2192   -0.2358   -1.5368 H   0  0  0  0  0  0  0  0  0  0  0  0
   -0.2598   -1.7911   -2.1387 H   0  0  0  0  0  0  0  0  0  0  0  0
   -2.1619   -0.0586   -2.0873 H   0  0  0  0  0  0  0  0  0  0  0  0
   -2.5400   -1.5512   -1.2345 H   0  0  0  0  0  0  0  0  0  0  0  0
   -2.1513   -0.0363    2.0857 H   0  0  0  0  0  0  0  0  0  0  0  0
   -2.5421   -1.5395    1.2504 H   0  0  0  0  0  0  0  0  0  0  0  0
   -0.2590   -1.7920    2.1396 H   0  0  0  0  0  0  0  0  0  0  0  0
    0.2274   -0.2381    1.5398 H   0  0  0  0  0  0  0  0  0  0  0  0
    2.4297   -3.6269   -0.0036 H   0  0  0  0  0  0  0  0  0  0  0  0
   -0.2622    1.3131    0.0080 H   0  0  0  0  0  0  0  0  0  0  0  0
    0.3590    3.8810    0.0140 H   0  0  0  0  0  0  0  0  0  0  0  0
    5.6579    0.0792   -0.0006 H   0  0  0  0  0  0  0  0  0  0  0  0
    2.9501    4.0592    0.0082 H   0  0  0  0  0  0  0  0  0  0  0  0
    0.1661   -3.7632   -0.8816 H   0  0  0  0  0  0  0  0  0  0  0  0
    0.1695   -3.7629    0.8833 H   0  0  0  0  0  0  0  0  0  0  0  0
   -1.3171   -3.4057    0.0036 H   0  0  0  0  0  0  0  0  0  0  0  0
   -4.2230    2.7465   -0.1883 H   0  0  0  0  0  0  0  0  0  0  0  0
   -4.3716    1.9024   -1.7385 H   0  0  0  0  0  0  0  0  0  0  0  0
   -2.7699    2.2314   -1.0555 H   0  0  0  0  0  0  0  0  0  0  0  0
  1  2  1  0  0  0  0
  2  3  1  0  0  0  0
  2  7  1  0  0  0  0
  2 12  1  0  0  0  0
  3  4  1  0  0  0  0
  4  5  1  0  0  0  0
  5  8  1  0  0  0  0
  6  7  1  0  0  0  0
  6  5  1  0  0  0  0
  9  8  2  0  0  0  0
 10  8  2  0  0  0  0
 11  8  1  0  0  0  0
 13 12  1  0  0  0  0
 13 14  2  0  0  0  0
 15 16  2  0  0  0  0
 15 23  1  0  0  0  0
 15 14  1  0  0  0  0
 16 17  1  0  0  0  0
 16 12  1  0  0  0  0
 17 18  1  0  0  0  0
 17 21  2  0  0  0  0
 18 19  2  0  0  0  0
 19 20  1  0  0  0  0
 21 20  1  0  0  0  0
 21 22  1  0  0  0  0
 23 22  2  0  0  0  0
 24  3  1  0  0  0  0
 25  3  1  0  0  0  0
 26  4  1  0  0  0  0
 27  4  1  0  0  0  0
 28  6  1  0  0  0  0
 29  6  1  0  0  0  0
 30  7  1  0  0  0  0
 31  7  1  0  0  0  0
 32 13  1  0  0  0  0
 33 18  1  0  0  0  0
 34 19  1  0  0  0  0
 35 23  1  0  0  0  0
 36 20  1  0  0  0  0
 37  1  1  0  0  0  0
 38  1  1  0  0  0  0
 39  1  1  0  0  0  0
 40 11  1  0  0  0  0
 41 11  1  0  0  0  0
 42 11  1  0  0  0  0
M  END
>  <charge>
0

>  <pKi>
8.77

$$$$
