4E5W
 OpenBabel11252210453D

 57 61  0  0  1  0  0  0  0  0999 V2000
   -1.4519   -3.1141   -2.2241 C   0  0  0  0  0  0  0  0  0  0  0  0
   -0.6700   -1.9348   -1.6594 C   0  0  0  0  0  0  0  0  0  0  0  0
    0.7876   -2.2947   -1.4073 C   0  0  0  0  0  0  0  0  0  0  0  0
   -1.3165   -1.3687   -0.3929 N   0  3  2  0  0  0  0  0  0  0  0  0
   -1.3797   -2.3396    0.7913 C   0  0  0  0  0  0  0  0  0  0  0  0
   -2.8485   -2.4479    1.2189 C   0  0  0  0  0  0  0  0  0  0  0  0
   -3.6732   -1.8074    0.0941 C   0  0  0  0  0  0  0  0  0  0  0  0
   -2.7277   -0.8023   -0.5855 C   0  0  1  0  0  0  0  0  0  0  0  0
   -2.8314    0.5565    0.0667 C   0  0  0  0  0  0  0  0  0  0  0  0
   -3.2839    0.6387    1.1920 O   0  0  0  0  0  0  0  0  0  0  0  0
   -2.3775    1.6949   -0.5887 N   0  0  0  0  0  0  0  0  0  0  0  0
   -1.6647    1.6836   -1.8808 C   0  0  0  0  0  0  0  0  0  0  0  0
   -0.1792    2.0121   -1.6869 C   0  0  0  0  0  0  0  0  0  0  0  0
    0.1523    2.4711   -0.2470 C   0  0  1  0  0  0  0  0  0  0  0  0
   -0.8928    3.4607    0.3190 C   0  0  0  0  0  0  0  0  0  0  0  0
   -2.3381    2.9712    0.1339 C   0  0  0  0  0  0  0  0  0  0  0  0
    0.3936    1.3102    0.6440 N   0  0  0  0  0  0  0  0  0  0  0  0
   -0.3013    0.9269    1.7881 C   0  0  0  0  0  0  0  0  0  0  0  0
    0.3103   -0.0136    2.4596 N   0  0  0  0  0  0  0  0  0  0  0  0
    1.4732   -0.2639    1.7897 C   0  0  0  0  0  0  0  0  0  0  0  0
    1.5596    0.5677    0.6691 C   0  0  0  0  0  0  0  0  0  0  0  0
    2.7370    0.4533   -0.1186 C   0  0  0  0  0  0  0  0  0  0  0  0
    3.2179    1.0916   -1.2828 C   0  0  0  0  0  0  0  0  0  0  0  0
    4.4289    0.5280   -1.5798 C   0  0  0  0  0  0  0  0  0  0  0  0
    4.7219   -0.4364   -0.6473 N   0  0  0  0  0  0  0  0  0  0  0  0
    3.6944   -0.5009    0.2729 C   0  0  0  0  0  0  0  0  0  0  0  0
    3.5978   -1.3262    1.3597 N   0  0  0  0  0  0  0  0  0  0  0  0
    2.5194   -1.1851    2.0769 C   0  0  0  0  0  0  0  0  0  0  0  0
   -2.9585   -0.7222   -1.6553 H   0  0  0  0  0  0  0  0  0  0  0  0
    5.5586   -1.0123   -0.6102 H   0  0  0  0  0  0  0  0  0  0  0  0
   -0.6964   -1.1248   -2.4065 H   0  0  0  0  0  0  0  0  0  0  0  0
   -0.7265   -0.5492   -0.0828 H   0  0  0  0  0  0  0  0  0  0  0  0
   -0.9907   -3.3128    0.4809 H   0  0  0  0  0  0  0  0  0  0  0  0
   -0.7397   -1.9968    1.6133 H   0  0  0  0  0  0  0  0  0  0  0  0
   -3.0088   -1.8950    2.1548 H   0  0  0  0  0  0  0  0  0  0  0  0
   -3.1466   -3.4873    1.4111 H   0  0  0  0  0  0  0  0  0  0  0  0
   -4.0294   -2.5641   -0.6160 H   0  0  0  0  0  0  0  0  0  0  0  0
   -4.5572   -1.2873    0.4856 H   0  0  0  0  0  0  0  0  0  0  0  0
   -1.8111    0.7308   -2.3947 H   0  0  0  0  0  0  0  0  0  0  0  0
   -2.1484    2.4361   -2.5157 H   0  0  0  0  0  0  0  0  0  0  0  0
    0.4209    1.1205   -1.9051 H   0  0  0  0  0  0  0  0  0  0  0  0
    0.1423    2.7714   -2.4117 H   0  0  0  0  0  0  0  0  0  0  0  0
    1.1235    2.9970   -0.2721 H   0  0  0  0  0  0  0  0  0  0  0  0
   -0.6830    3.6280    1.3830 H   0  0  0  0  0  0  0  0  0  0  0  0
   -0.7652    4.4399   -0.1614 H   0  0  0  0  0  0  0  0  0  0  0  0
   -2.9433    3.6946   -0.4259 H   0  0  0  0  0  0  0  0  0  0  0  0
   -2.8455    2.8261    1.0951 H   0  0  0  0  0  0  0  0  0  0  0  0
   -1.2665    1.3158    2.0770 H   0  0  0  0  0  0  0  0  0  0  0  0
    2.7315    1.8827   -1.8265 H   0  0  0  0  0  0  0  0  0  0  0  0
    5.0659    0.7923   -2.4110 H   0  0  0  0  0  0  0  0  0  0  0  0
    2.4205   -1.8136    2.9476 H   0  0  0  0  0  0  0  0  0  0  0  0
    0.8729   -3.1197   -0.6995 H   0  0  0  0  0  0  0  0  0  0  0  0
    1.2905   -2.5998   -2.3274 H   0  0  0  0  0  0  0  0  0  0  0  0
    1.3375   -1.4499   -0.9903 H   0  0  0  0  0  0  0  0  0  0  0  0
   -1.0033   -3.4794   -3.1505 H   0  0  0  0  0  0  0  0  0  0  0  0
   -1.4700   -3.9488   -1.5221 H   0  0  0  0  0  0  0  0  0  0  0  0
   -2.4865   -2.8460   -2.4427 H   0  0  0  0  0  0  0  0  0  0  0  0
  1  2  1  0  0  0  0
  2  3  1  0  0  0  0
  2  4  1  0  0  0  0
  4  8  1  0  0  0  0
  4 32  1  1  0  0  0
  5  6  1  0  0  0  0
  5  4  1  0  0  0  0
  6  7  1  0  0  0  0
  7  8  1  0  0  0  0
  8 29  1  6  0  0  0
  9  8  1  0  0  0  0
  9 11  1  0  0  0  0
  9 10  2  0  0  0  0
 12 13  1  0  0  0  0
 12 11  1  0  0  0  0
 13 14  1  0  0  0  0
 14 15  1  0  0  0  0
 14 17  1  0  0  0  0
 14 43  1  6  0  0  0
 15 16  1  0  0  0  0
 16 11  1  0  0  0  0
 18 17  1  0  0  0  0
 18 19  2  0  0  0  0
 20 21  2  0  0  0  0
 20 28  1  0  0  0  0
 20 19  1  0  0  0  0
 21 22  1  0  0  0  0
 21 17  1  0  0  0  0
 22 23  1  0  0  0  0
 22 26  2  0  0  0  0
 23 24  2  0  0  0  0
 24 25  1  0  0  0  0
 26 25  1  0  0  0  0
 26 27  1  0  0  0  0
 28 27  2  0  0  0  0
 30 25  1  0  0  0  0
 31  2  1  0  0  0  0
 33  5  1  0  0  0  0
 34  5  1  0  0  0  0
 35  6  1  0  0  0  0
 36  6  1  0  0  0  0
 37  7  1  0  0  0  0
 38  7  1  0  0  0  0
 39 12  1  0  0  0  0
 40 12  1  0  0  0  0
 41 13  1  0  0  0  0
 42 13  1  0  0  0  0
 44 15  1  0  0  0  0
 45 15  1  0  0  0  0
 46 16  1  0  0  0  0
 47 16  1  0  0  0  0
 48 18  1  0  0  0  0
 49 23  1  0  0  0  0
 50 24  1  0  0  0  0
 51 28  1  0  0  0  0
 52  3  1  0  0  0  0
 53  3  1  0  0  0  0
 54  3  1  0  0  0  0
 55  1  1  0  0  0  0
 56  1  1  0  0  0  0
 57  1  1  0  0  0  0
M  CHG  1   4   1
M  END
>  <charge>
1

>  <pKi>
7.66

$$$$
