 xtb: 6.7.1 (edcfbbe)
          04212611513D

 57 61  0     0  0            999 V2000
  -14.8506   37.9177   -3.4370 C   0  0  0  0  0  0  0  0  0  0  0  0
  -14.5383   36.4580   -3.7440 C   0  0  0  0  0  0  0  0  0  0  0  0
  -15.7749   35.7676   -4.3076 C   0  0  0  0  0  0  0  0  0  0  0  0
  -14.0933   35.7662   -2.5004 N   0  0  0  0  0  0  0  0  0  0  0  0
  -12.9623   36.4162   -1.7952 C   0  0  0  0  0  0  0  0  0  0  0  0
  -12.3953   35.3018   -0.9311 C   0  0  0  0  0  0  0  0  0  0  0  0
  -12.4406   34.1095   -1.8835 C   0  0  0  0  0  0  0  0  0  0  0  0
  -13.7493   34.3254   -2.6656 C   0  0  0  0  0  0  0  0  0  0  0  0
  -14.9228   33.5416   -2.0449 C   0  0  0  0  0  0  0  0  0  0  0  0
  -15.7470   34.1826   -1.3867 O   0  0  0  0  0  0  0  0  0  0  0  0
  -15.0019   32.2327   -2.2462 N   0  0  0  0  0  0  0  0  0  0  0  0
  -16.0948   31.4783   -1.6560 C   0  0  0  0  0  0  0  0  0  0  0  0
  -15.5550   30.4062   -0.7128 C   0  0  0  0  0  0  0  0  0  0  0  0
  -14.5903   29.4917   -1.4782 C   0  0  0  0  0  0  0  0  0  0  0  0
  -13.4664   30.3406   -2.0698 C   0  0  0  0  0  0  0  0  0  0  0  0
  -14.0693   31.4081   -2.9883 C   0  0  0  0  0  0  0  0  0  0  0  0
  -14.0971   28.4380   -0.6187 N   0  0  0  0  0  0  0  0  0  0  0  0
  -12.9320   28.3683    0.0859 C   0  0  0  0  0  0  0  0  0  0  0  0
  -12.8075   27.2975    0.8108 N   0  0  0  0  0  0  0  0  0  0  0  0
  -13.9658   26.5860    0.6014 C   0  0  0  0  0  0  0  0  0  0  0  0
  -14.7897   27.3039   -0.2963 C   0  0  0  0  0  0  0  0  0  0  0  0
  -16.0286   26.7677   -0.6510 C   0  0  0  0  0  0  0  0  0  0  0  0
  -17.1506   27.0916   -1.4563 C   0  0  0  0  0  0  0  0  0  0  0  0
  -18.0395   26.0646   -1.3208 C   0  0  0  0  0  0  0  0  0  0  0  0
  -17.5392   25.1176   -0.4774 N   0  0  0  0  0  0  0  0  0  0  0  0
  -16.3129   25.5131   -0.0460 C   0  0  0  0  0  0  0  0  0  0  0  0
  -15.5418   24.8210    0.7995 N   0  0  0  0  0  0  0  0  0  0  0  0
  -14.3817   25.3545    1.1192 C   0  0  0  0  0  0  0  0  0  0  0  0
  -13.6399   34.0934   -3.7238 H   0  0  0  0  0  0  0  0  0  0  0  0
  -17.9932   24.2619   -0.2062 H   0  0  0  0  0  0  0  0  0  0  0  0
  -13.7126   36.4000   -4.4601 H   0  0  0  0  0  0  0  0  0  0  0  0
  -14.9181   35.7189   -1.8514 H   0  0  0  0  0  0  0  0  0  0  0  0
  -12.2287   36.7364   -2.5364 H   0  0  0  0  0  0  0  0  0  0  0  0
  -13.3037   37.2716   -1.2189 H   0  0  0  0  0  0  0  0  0  0  0  0
  -13.0344   35.1267   -0.0653 H   0  0  0  0  0  0  0  0  0  0  0  0
  -11.3902   35.5196   -0.5823 H   0  0  0  0  0  0  0  0  0  0  0  0
  -11.5882   34.1349   -2.5608 H   0  0  0  0  0  0  0  0  0  0  0  0
  -12.4309   33.1637   -1.3496 H   0  0  0  0  0  0  0  0  0  0  0  0
  -16.7396   32.1733   -1.1175 H   0  0  0  0  0  0  0  0  0  0  0  0
  -16.6696   31.0102   -2.4602 H   0  0  0  0  0  0  0  0  0  0  0  0
  -15.0285   30.8712    0.1228 H   0  0  0  0  0  0  0  0  0  0  0  0
  -16.3839   29.8256   -0.3083 H   0  0  0  0  0  0  0  0  0  0  0  0
  -15.1345   28.9956   -2.2909 H   0  0  0  0  0  0  0  0  0  0  0  0
  -12.9133   30.8247   -1.2645 H   0  0  0  0  0  0  0  0  0  0  0  0
  -12.7777   29.7165   -2.6382 H   0  0  0  0  0  0  0  0  0  0  0  0
  -14.6181   30.9179   -3.7984 H   0  0  0  0  0  0  0  0  0  0  0  0
  -13.2714   32.0071   -3.4168 H   0  0  0  0  0  0  0  0  0  0  0  0
  -12.1727   29.1217    0.0396 H   0  0  0  0  0  0  0  0  0  0  0  0
  -17.2922   27.9672   -2.0562 H   0  0  0  0  0  0  0  0  0  0  0  0
  -19.0040   25.9423   -1.7720 H   0  0  0  0  0  0  0  0  0  0  0  0
  -13.7622   24.7933    1.8029 H   0  0  0  0  0  0  0  0  0  0  0  0
  -15.5763   34.7497   -4.6291 H   0  0  0  0  0  0  0  0  0  0  0  0
  -16.5710   35.7466   -3.5666 H   0  0  0  0  0  0  0  0  0  0  0  0
  -16.1336   36.3202   -5.1705 H   0  0  0  0  0  0  0  0  0  0  0  0
  -13.9672   38.4730   -3.1398 H   0  0  0  0  0  0  0  0  0  0  0  0
  -15.2505   38.3919   -4.3282 H   0  0  0  0  0  0  0  0  0  0  0  0
  -15.6018   37.9935   -2.6548 H   0  0  0  0  0  0  0  0  0  0  0  0
  1  2  1  0  0  0  0
  2  3  1  0  0  0  0
  2  4  1  0  0  0  0
  4  5  1  0  0  0  0
  5  6  1  0  0  0  0
  6  7  1  0  0  0  0
  4  8  1  0  0  0  0
  7  8  1  0  0  0  0
  8  9  1  0  0  0  0
  9 10  2  0  0  0  0
  9 11  4  0  0  0  0
 11 12  1  0  0  0  0
 12 13  1  0  0  0  0
 13 14  1  0  0  0  0
 14 15  1  0  0  0  0
 11 16  1  0  0  0  0
 15 16  1  0  0  0  0
 14 17  1  0  0  0  0
 17 18  4  0  0  0  0
 18 19  2  0  0  0  0
 19 20  4  0  0  0  0
 17 21  1  0  0  0  0
 20 21  4  0  0  0  0
 21 22  4  0  0  0  0
 22 23  4  0  0  0  0
 23 24  2  0  0  0  0
 24 25  4  0  0  0  0
 22 26  4  0  0  0  0
 25 26  4  0  0  0  0
 26 27  4  0  0  0  0
 20 28  4  0  0  0  0
 27 28  4  0  0  0  0
  8 29  1  0  0  0  0
 25 30  1  0  0  0  0
  2 31  1  0  0  0  0
  4 32  1  0  0  0  0
  5 33  1  0  0  0  0
  5 34  1  0  0  0  0
  6 35  1  0  0  0  0
  6 36  1  0  0  0  0
  7 37  1  0  0  0  0
  7 38  1  0  0  0  0
 12 39  1  0  0  0  0
 12 40  1  0  0  0  0
 13 41  1  0  0  0  0
 13 42  1  0  0  0  0
 14 43  1  0  0  0  0
 15 44  1  0  0  0  0
 15 45  1  0  0  0  0
 16 46  1  0  0  0  0
 16 47  1  0  0  0  0
 18 48  1  0  0  0  0
 23 49  1  0  0  0  0
 24 50  1  0  0  0  0
 28 51  1  0  0  0  0
  3 52  1  0  0  0  0
  3 53  1  0  0  0  0
  3 54  1  0  0  0  0
  1 55  1  0  0  0  0
  1 56  1  0  0  0  0
  1 57  1  0  0  0  0
M  CHG  1   1   1
M  END
