 xtb: 6.7.1 (edcfbbe)
          04212611513D

 42 45  0     0  0            999 V2000
  -14.6347   29.3500   -3.0572 C   0  0  0  0  0  0  0  0  0  0  0  0
  -14.3696   29.8132   -1.6212 C   0  0  0  0  0  0  0  0  0  0  0  0
  -13.3175   30.9353   -1.6019 C   0  0  0  0  0  0  0  0  0  0  0  0
  -13.8738   32.2217   -2.2130 C   0  0  0  0  0  0  0  0  0  0  0  0
  -15.0459   32.6285   -1.4705 N   0  0  0  0  0  0  0  0  0  0  0  0
  -16.1179   31.6586   -1.4938 C   0  0  0  0  0  0  0  0  0  0  0  0
  -15.6208   30.3453   -0.8941 C   0  0  0  0  0  0  0  0  0  0  0  0
  -15.4549   34.2187   -1.5037 S   0  0  0  0  0  0  0  0  0  0  0  0
  -16.5232   34.4092   -0.5447 O   0  0  0  0  0  0  0  0  0  0  0  0
  -14.2450   34.9796   -1.2702 O   0  0  0  0  0  0  0  0  0  0  0  0
  -16.0770   34.6135   -3.1458 C   0  0  0  0  0  0  0  0  0  0  0  0
  -13.8817   28.6541   -0.8718 N   0  0  0  0  0  0  0  0  0  0  0  0
  -12.6648   28.5101   -0.2725 C   0  0  0  0  0  0  0  0  0  0  0  0
  -12.4980   27.3846    0.3507 N   0  0  0  0  0  0  0  0  0  0  0  0
  -13.6759   26.7027    0.1706 C   0  0  0  0  0  0  0  0  0  0  0  0
  -14.5638   27.4892   -0.6055 C   0  0  0  0  0  0  0  0  0  0  0  0
  -15.8186   26.9394   -0.9107 C   0  0  0  0  0  0  0  0  0  0  0  0
  -17.0042   27.2625   -1.6280 C   0  0  0  0  0  0  0  0  0  0  0  0
  -17.8547   26.2035   -1.4968 C   0  0  0  0  0  0  0  0  0  0  0  0
  -17.2771   25.2307   -0.7407 N   0  0  0  0  0  0  0  0  0  0  0  0
  -16.0367   25.6401   -0.3686 C   0  0  0  0  0  0  0  0  0  0  0  0
  -15.2047   24.9024    0.3725 N   0  0  0  0  0  0  0  0  0  0  0  0
  -14.0314   25.4333    0.6356 C   0  0  0  0  0  0  0  0  0  0  0  0
  -13.0418   31.1537   -0.5698 H   0  0  0  0  0  0  0  0  0  0  0  0
  -12.4277   30.6365   -2.1558 H   0  0  0  0  0  0  0  0  0  0  0  0
  -13.1481   33.0296   -2.1184 H   0  0  0  0  0  0  0  0  0  0  0  0
  -14.1097   32.0707   -3.2731 H   0  0  0  0  0  0  0  0  0  0  0  0
  -16.9271   32.0701   -0.8906 H   0  0  0  0  0  0  0  0  0  0  0  0
  -16.4789   31.4976   -2.5174 H   0  0  0  0  0  0  0  0  0  0  0  0
  -16.4227   29.6124   -0.9154 H   0  0  0  0  0  0  0  0  0  0  0  0
  -15.3517   30.5206    0.1493 H   0  0  0  0  0  0  0  0  0  0  0  0
  -11.8984   29.2553   -0.3144 H   0  0  0  0  0  0  0  0  0  0  0  0
  -17.2216   28.1514   -2.1842 H   0  0  0  0  0  0  0  0  0  0  0  0
  -18.8409   26.0798   -1.8975 H   0  0  0  0  0  0  0  0  0  0  0  0
  -13.3480   24.8444    1.2286 H   0  0  0  0  0  0  0  0  0  0  0  0
  -17.6823   24.3443   -0.4913 H   0  0  0  0  0  0  0  0  0  0  0  0
  -15.2105   28.4306   -3.0600 H   0  0  0  0  0  0  0  0  0  0  0  0
  -15.1773   30.1001   -3.6203 H   0  0  0  0  0  0  0  0  0  0  0  0
  -13.6885   29.1553   -3.5567 H   0  0  0  0  0  0  0  0  0  0  0  0
  -16.3258   35.6656   -3.1386 H   0  0  0  0  0  0  0  0  0  0  0  0
  -16.9577   34.0116   -3.3196 H   0  0  0  0  0  0  0  0  0  0  0  0
  -15.2888   34.4099   -3.8569 H   0  0  0  0  0  0  0  0  0  0  0  0
  1  2  1  0  0  0  0
  2  3  1  0  0  0  0
  3  4  1  0  0  0  0
  4  5  1  0  0  0  0
  5  6  1  0  0  0  0
  2  7  1  0  0  0  0
  6  7  1  0  0  0  0
  5  8  1  0  0  0  0
  8  9  2  0  0  0  0
  8 10  2  0  0  0  0
  8 11  1  0  0  0  0
  2 12  1  0  0  0  0
 12 13  4  0  0  0  0
 13 14  2  0  0  0  0
 14 15  4  0  0  0  0
 12 16  1  0  0  0  0
 15 16  4  0  0  0  0
 16 17  4  0  0  0  0
 17 18  4  0  0  0  0
 18 19  2  0  0  0  0
 19 20  4  0  0  0  0
 17 21  4  0  0  0  0
 20 21  4  0  0  0  0
 21 22  4  0  0  0  0
 15 23  4  0  0  0  0
 22 23  4  0  0  0  0
  3 24  1  0  0  0  0
  3 25  1  0  0  0  0
  4 26  1  0  0  0  0
  4 27  1  0  0  0  0
  6 28  1  0  0  0  0
  6 29  1  0  0  0  0
  7 30  1  0  0  0  0
  7 31  1  0  0  0  0
 13 32  1  0  0  0  0
 18 33  1  0  0  0  0
 19 34  1  0  0  0  0
 23 35  1  0  0  0  0
 20 36  1  0  0  0  0
  1 37  1  0  0  0  0
  1 38  1  0  0  0  0
  1 39  1  0  0  0  0
 11 40  1  0  0  0  0
 11 41  1  0  0  0  0
 11 42  1  0  0  0  0
M  END
