4E4N
 OpenBabel11252210453D

 48 51  0  0  1  0  0  0  0  0999 V2000
    6.5268   -0.4302    1.4052 C   0  0  0  0  0  0  0  0  0  0  0  0
    6.2873    0.3151    0.0930 C   0  0  0  0  0  0  0  0  0  0  0  0
    7.0453    1.6426    0.0810 C   0  0  0  0  0  0  0  0  0  0  0  0
    6.6812   -0.5406   -1.1100 C   0  0  0  0  0  0  0  0  0  0  0  0
    4.8896    0.7137   -0.0102 O   0  0  0  0  0  0  0  0  0  0  0  0
    3.8986   -0.1883   -0.0307 C   0  0  0  0  0  0  0  0  0  0  0  0
    4.0291   -1.4002    0.0292 O   0  0  0  0  0  0  0  0  0  0  0  0
    2.7139    0.4404   -0.1237 N   0  0  0  0  0  0  0  0  0  0  0  0
    1.4476   -0.2548   -0.1930 C   0  0  2  0  0  0  0  0  0  0  0  0
    0.6526    0.1326   -1.4553 C   0  0  0  0  0  0  0  0  0  0  0  0
   -0.4109    1.1154   -0.9709 C   0  0  0  0  0  0  0  0  0  0  0  0
   -0.7970    0.5674    0.4089 C   0  0  2  0  0  0  0  0  0  0  0  0
    0.5398    0.1151    1.0016 C   0  0  0  0  0  0  0  0  0  0  0  0
   -1.7446   -0.5182    0.2787 N   0  0  0  0  0  0  0  0  0  0  0  0
   -1.5142   -1.8570    0.1758 C   0  0  0  0  0  0  0  0  0  0  0  0
   -2.5866   -2.5750    0.0201 N   0  0  0  0  0  0  0  0  0  0  0  0
   -3.6232   -1.6703    0.0029 C   0  0  0  0  0  0  0  0  0  0  0  0
   -3.0972   -0.3664    0.1562 C   0  0  0  0  0  0  0  0  0  0  0  0
   -3.9758    0.7182    0.1519 C   0  0  0  0  0  0  0  0  0  0  0  0
   -3.9367    2.1332    0.2433 C   0  0  0  0  0  0  0  0  0  0  0  0
   -5.2282    2.5664    0.1572 C   0  0  0  0  0  0  0  0  0  0  0  0
   -6.0729    1.5050    0.0172 N   0  0  0  0  0  0  0  0  0  0  0  0
   -5.3434    0.3587    0.0052 C   0  0  0  0  0  0  0  0  0  0  0  0
   -5.8551   -0.8697   -0.1297 N   0  0  0  0  0  0  0  0  0  0  0  0
   -5.0009   -1.8716   -0.1333 C   0  0  0  0  0  0  0  0  0  0  0  0
    2.7232    1.4477   -0.1777 H   0  0  0  0  0  0  0  0  0  0  0  0
    1.7090   -1.3163   -0.1949 H   0  0  0  0  0  0  0  0  0  0  0  0
    1.3024    0.5588   -2.2160 H   0  0  0  0  0  0  0  0  0  0  0  0
    0.1770   -0.7541   -1.8742 H   0  0  0  0  0  0  0  0  0  0  0  0
   -1.2670    1.1703   -1.6409 H   0  0  0  0  0  0  0  0  0  0  0  0
    0.0083    2.1135   -0.8552 H   0  0  0  0  0  0  0  0  0  0  0  0
   -1.2803    1.3233    1.0327 H   0  0  0  0  0  0  0  0  0  0  0  0
    0.4185   -0.7095    1.7003 H   0  0  0  0  0  0  0  0  0  0  0  0
    0.9863    0.9476    1.5432 H   0  0  0  0  0  0  0  0  0  0  0  0
   -0.5325   -2.2833    0.2251 H   0  0  0  0  0  0  0  0  0  0  0  0
   -3.0682    2.7510    0.3488 H   0  0  0  0  0  0  0  0  0  0  0  0
   -5.6070    3.5685    0.1864 H   0  0  0  0  0  0  0  0  0  0  0  0
   -5.4151   -2.8622   -0.2468 H   0  0  0  0  0  0  0  0  0  0  0  0
   -7.0742    1.5477   -0.0704 H   0  0  0  0  0  0  0  0  0  0  0  0
    8.1113    1.4554    0.1523 H   0  0  0  0  0  0  0  0  0  0  0  0
    6.7321    2.2559    0.9209 H   0  0  0  0  0  0  0  0  0  0  0  0
    6.8365    2.1802   -0.8395 H   0  0  0  0  0  0  0  0  0  0  0  0
    5.9648   -1.3609    1.4170 H   0  0  0  0  0  0  0  0  0  0  0  0
    6.2090    0.1822    2.2459 H   0  0  0  0  0  0  0  0  0  0  0  0
    7.5835   -0.6551    1.5079 H   0  0  0  0  0  0  0  0  0  0  0  0
    7.7403   -0.7721   -1.0601 H   0  0  0  0  0  0  0  0  0  0  0  0
    6.1162   -1.4698   -1.1117 H   0  0  0  0  0  0  0  0  0  0  0  0
    6.4765   -0.0041   -2.0336 H   0  0  0  0  0  0  0  0  0  0  0  0
  1  2  1  0  0  0  0
  2  3  1  0  0  0  0
  2  4  1  0  0  0  0
  2  5  1  0  0  0  0
  6  8  1  0  0  0  0
  6  5  1  0  0  0  0
  6  7  2  0  0  0  0
  9  8  1  0  0  0  0
  9 27  1  6  0  0  0
 10 11  1  0  0  0  0
 10  9  1  0  0  0  0
 11 12  1  0  0  0  0
 12 13  1  0  0  0  0
 12 14  1  0  0  0  0
 12 32  1  1  0  0  0
 13  9  1  0  0  0  0
 15 14  1  0  0  0  0
 15 16  2  0  0  0  0
 17 18  2  0  0  0  0
 17 25  1  0  0  0  0
 17 16  1  0  0  0  0
 18 19  1  0  0  0  0
 18 14  1  0  0  0  0
 19 20  1  0  0  0  0
 19 23  2  0  0  0  0
 20 21  2  0  0  0  0
 21 22  1  0  0  0  0
 23 22  1  0  0  0  0
 23 24  1  0  0  0  0
 25 24  2  0  0  0  0
 26  8  1  0  0  0  0
 28 10  1  0  0  0  0
 29 10  1  0  0  0  0
 30 11  1  0  0  0  0
 31 11  1  0  0  0  0
 33 13  1  0  0  0  0
 34 13  1  0  0  0  0
 35 15  1  0  0  0  0
 36 20  1  0  0  0  0
 37 21  1  0  0  0  0
 38 25  1  0  0  0  0
 39 22  1  0  0  0  0
 40  3  1  0  0  0  0
 41  3  1  0  0  0  0
 42  3  1  0  0  0  0
 43  1  1  0  0  0  0
 44  1  1  0  0  0  0
 45  1  1  0  0  0  0
 46  4  1  0  0  0  0
 47  4  1  0  0  0  0
 48  4  1  0  0  0  0
M  END
>  <charge>
0

>  <pKi>
9.05

$$$$
