 xtb: 6.7.1 (edcfbbe)
          04272612573D

 42 45  0     0  0            999 V2000
   -0.1902   -3.4184    0.0015 C   0  0  0  0  0  0  0  0  0  0  0  0
    0.0005   -1.9006    0.0007 C   0  0  0  0  0  0  0  0  0  0  0  0
   -0.6356   -1.2922   -1.2616 C   0  0  0  0  0  0  0  0  0  0  0  0
   -2.1635   -1.3668   -1.2211 C   0  0  0  0  0  0  0  0  0  0  0  0
   -2.7128   -0.8183    0.0002 N   0  0  0  0  0  0  0  0  0  0  0  0
   -2.1635   -1.3656    1.2220 C   0  0  0  0  0  0  0  0  0  0  0  0
   -0.6356   -1.2912    1.2626 C   0  0  0  0  0  0  0  0  0  0  0  0
   -3.1759    0.7732   -0.0006 S   0  0  0  0  0  0  0  0  0  0  0  0
   -2.7521    1.4162    1.2291 O   0  0  0  0  0  0  0  0  0  0  0  0
   -2.7523    1.4147   -1.2312 O   0  0  0  0  0  0  0  0  0  0  0  0
   -4.9629    0.6568   -0.0003 C   0  0  0  0  0  0  0  0  0  0  0  0
    1.4314   -1.5848    0.0004 N   0  0  0  0  0  0  0  0  0  0  0  0
    2.4518   -2.4928   -0.0004 C   0  0  0  0  0  0  0  0  0  0  0  0
    3.6403   -1.9755   -0.0011 N   0  0  0  0  0  0  0  0  0  0  0  0
    3.4341   -0.6193   -0.0008 C   0  0  0  0  0  0  0  0  0  0  0  0
    2.0407   -0.3496    0.0000 C   0  0  0  0  0  0  0  0  0  0  0  0
    1.6484    0.9990    0.0003 C   0  0  0  0  0  0  0  0  0  0  0  0
    0.4646    1.7888    0.0008 C   0  0  0  0  0  0  0  0  0  0  0  0
    0.8543    3.0964    0.0012 C   0  0  0  0  0  0  0  0  0  0  0  0
    2.2126    3.1820    0.0008 N   0  0  0  0  0  0  0  0  0  0  0  0
    2.7313    1.9267    0.0001 C   0  0  0  0  0  0  0  0  0  0  0  0
    4.0422    1.6712   -0.0006 N   0  0  0  0  0  0  0  0  0  0  0  0
    4.3867    0.4026   -0.0011 C   0  0  0  0  0  0  0  0  0  0  0  0
   -0.3431   -0.2462   -1.3510 H   0  0  0  0  0  0  0  0  0  0  0  0
   -0.2716   -1.8190   -2.1449 H   0  0  0  0  0  0  0  0  0  0  0  0
   -2.5741   -0.7817   -2.0431 H   0  0  0  0  0  0  0  0  0  0  0  0
   -2.5078   -2.3997   -1.3105 H   0  0  0  0  0  0  0  0  0  0  0  0
   -2.5741   -0.7795    2.0434 H   0  0  0  0  0  0  0  0  0  0  0  0
   -2.5080   -2.3983    1.3125 H   0  0  0  0  0  0  0  0  0  0  0  0
   -0.2718   -1.8176    2.1462 H   0  0  0  0  0  0  0  0  0  0  0  0
   -0.3429   -0.2453    1.3514 H   0  0  0  0  0  0  0  0  0  0  0  0
    2.2980   -3.5507   -0.0003 H   0  0  0  0  0  0  0  0  0  0  0  0
   -0.5589    1.4700    0.0008 H   0  0  0  0  0  0  0  0  0  0  0  0
    0.2387    3.9735    0.0016 H   0  0  0  0  0  0  0  0  0  0  0  0
    5.4429    0.1807   -0.0016 H   0  0  0  0  0  0  0  0  0  0  0  0
    2.7615    4.0252    0.0009 H   0  0  0  0  0  0  0  0  0  0  0  0
    0.2523   -3.8626   -0.8860 H   0  0  0  0  0  0  0  0  0  0  0  0
    0.2534   -3.8618    0.8889 H   0  0  0  0  0  0  0  0  0  0  0  0
   -1.2489   -3.6511    0.0022 H   0  0  0  0  0  0  0  0  0  0  0  0
   -5.3587    1.6634    0.0013 H   0  0  0  0  0  0  0  0  0  0  0  0
   -5.2508    0.1228    0.8938 H   0  0  0  0  0  0  0  0  0  0  0  0
   -5.2513    0.1254   -0.8959 H   0  0  0  0  0  0  0  0  0  0  0  0
  1  2  1  0  0  0  0
  2  3  1  0  0  0  0
  3  4  1  0  0  0  0
  4  5  1  0  0  0  0
  5  6  1  0  0  0  0
  2  7  1  0  0  0  0
  6  7  1  0  0  0  0
  5  8  1  0  0  0  0
  8  9  2  0  0  0  0
  8 10  2  0  0  0  0
  8 11  1  0  0  0  0
  2 12  1  0  0  0  0
 12 13  4  0  0  0  0
 13 14  2  0  0  0  0
 14 15  4  0  0  0  0
 12 16  1  0  0  0  0
 15 16  4  0  0  0  0
 16 17  4  0  0  0  0
 17 18  4  0  0  0  0
 18 19  2  0  0  0  0
 19 20  4  0  0  0  0
 17 21  4  0  0  0  0
 20 21  4  0  0  0  0
 21 22  4  0  0  0  0
 15 23  4  0  0  0  0
 22 23  4  0  0  0  0
  3 24  1  0  0  0  0
  3 25  1  0  0  0  0
  4 26  1  0  0  0  0
  4 27  1  0  0  0  0
  6 28  1  0  0  0  0
  6 29  1  0  0  0  0
  7 30  1  0  0  0  0
  7 31  1  0  0  0  0
 13 32  1  0  0  0  0
 18 33  1  0  0  0  0
 19 34  1  0  0  0  0
 23 35  1  0  0  0  0
 20 36  1  0  0  0  0
  1 37  1  0  0  0  0
  1 38  1  0  0  0  0
  1 39  1  0  0  0  0
 11 40  1  0  0  0  0
 11 41  1  0  0  0  0
 11 42  1  0  0  0  0
M  END
