 xtb: 6.7.1 (edcfbbe)
          04212611513D

 48 51  0     0  0            999 V2000
  -17.0796   36.3192    1.0460 C   0  0  0  0  0  0  0  0  0  0  0  0
  -17.1935   36.4050   -0.4752 C   0  0  0  0  0  0  0  0  0  0  0  0
  -18.4973   37.0929   -0.8800 C   0  0  0  0  0  0  0  0  0  0  0  0
  -15.9918   37.1293   -1.0802 C   0  0  0  0  0  0  0  0  0  0  0  0
  -17.3150   35.0702   -1.0476 O   0  0  0  0  0  0  0  0  0  0  0  0
  -16.3502   34.1514   -0.9072 C   0  0  0  0  0  0  0  0  0  0  0  0
  -15.3011   34.2975   -0.3016 O   0  0  0  0  0  0  0  0  0  0  0  0
  -16.7047   33.0203   -1.5435 N   0  0  0  0  0  0  0  0  0  0  0  0
  -15.8904   31.8320   -1.5648 C   0  0  0  0  0  0  0  0  0  0  0  0
  -15.6162   31.3058   -2.9762 C   0  0  0  0  0  0  0  0  0  0  0  0
  -15.1250   29.8837   -2.7249 C   0  0  0  0  0  0  0  0  0  0  0  0
  -15.9398   29.3793   -1.5124 C   0  0  0  0  0  0  0  0  0  0  0  0
  -16.5572   30.6355   -0.8676 C   0  0  0  0  0  0  0  0  0  0  0  0
  -15.1121   28.6405   -0.5896 N   0  0  0  0  0  0  0  0  0  0  0  0
  -14.1307   29.1463    0.2107 C   0  0  0  0  0  0  0  0  0  0  0  0
  -13.5190   28.2579    0.9343 N   0  0  0  0  0  0  0  0  0  0  0  0
  -14.1133   27.0609    0.6054 C   0  0  0  0  0  0  0  0  0  0  0  0
  -15.1195   27.2935   -0.3624 C   0  0  0  0  0  0  0  0  0  0  0  0
  -15.8477   26.2047   -0.8472 C   0  0  0  0  0  0  0  0  0  0  0  0
  -16.8868   25.9307   -1.7738 C   0  0  0  0  0  0  0  0  0  0  0  0
  -17.1013   24.5833   -1.7363 C   0  0  0  0  0  0  0  0  0  0  0  0
  -16.2574   23.9974   -0.8403 N   0  0  0  0  0  0  0  0  0  0  0  0
  -15.4751   24.9557   -0.2784 C   0  0  0  0  0  0  0  0  0  0  0  0
  -14.5320   24.7240    0.6411 N   0  0  0  0  0  0  0  0  0  0  0  0
  -13.8588   25.7684    1.0756 C   0  0  0  0  0  0  0  0  0  0  0  0
  -17.6007   33.0075   -2.0075 H   0  0  0  0  0  0  0  0  0  0  0  0
  -14.9535   32.1007   -1.0672 H   0  0  0  0  0  0  0  0  0  0  0  0
  -16.5476   31.2927   -3.5421 H   0  0  0  0  0  0  0  0  0  0  0  0
  -14.8873   31.9094   -3.5111 H   0  0  0  0  0  0  0  0  0  0  0  0
  -14.0667   29.8974   -2.4606 H   0  0  0  0  0  0  0  0  0  0  0  0
  -15.2500   29.2401   -3.5927 H   0  0  0  0  0  0  0  0  0  0  0  0
  -16.7237   28.6910   -1.8300 H   0  0  0  0  0  0  0  0  0  0  0  0
  -16.4081   30.6513    0.2104 H   0  0  0  0  0  0  0  0  0  0  0  0
  -17.6286   30.6638   -1.0625 H   0  0  0  0  0  0  0  0  0  0  0  0
  -13.8946   30.1921    0.2373 H   0  0  0  0  0  0  0  0  0  0  0  0
  -17.4086   26.6311   -2.3939 H   0  0  0  0  0  0  0  0  0  0  0  0
  -17.8050   23.9970   -2.2928 H   0  0  0  0  0  0  0  0  0  0  0  0
  -13.0960   25.5812    1.8165 H   0  0  0  0  0  0  0  0  0  0  0  0
  -16.2064   23.0164   -0.6234 H   0  0  0  0  0  0  0  0  0  0  0  0
  -18.5835   37.1163   -1.9624 H   0  0  0  0  0  0  0  0  0  0  0  0
  -18.5090   38.1079   -0.4977 H   0  0  0  0  0  0  0  0  0  0  0  0
  -19.3449   36.5477   -0.4751 H   0  0  0  0  0  0  0  0  0  0  0  0
  -16.1646   35.8030    1.3265 H   0  0  0  0  0  0  0  0  0  0  0  0
  -17.9282   35.7754    1.4546 H   0  0  0  0  0  0  0  0  0  0  0  0
  -17.0627   37.3198    1.4659 H   0  0  0  0  0  0  0  0  0  0  0  0
  -15.0702   36.6196   -0.8094 H   0  0  0  0  0  0  0  0  0  0  0  0
  -16.0755   37.1508   -2.1643 H   0  0  0  0  0  0  0  0  0  0  0  0
  -15.9548   38.1472   -0.7058 H   0  0  0  0  0  0  0  0  0  0  0  0
  1  2  1  0  0  0  0
  2  3  1  0  0  0  0
  2  4  1  0  0  0  0
  2  5  1  0  0  0  0
  5  6  1  0  0  0  0
  6  7  2  0  0  0  0
  6  8  4  0  0  0  0
  8  9  1  0  0  0  0
  9 10  1  0  0  0  0
 10 11  1  0  0  0  0
 11 12  1  0  0  0  0
  9 13  1  0  0  0  0
 12 13  1  0  0  0  0
 12 14  1  0  0  0  0
 14 15  4  0  0  0  0
 15 16  2  0  0  0  0
 16 17  1  0  0  0  0
 14 18  1  0  0  0  0
 17 18  4  0  0  0  0
 18 19  4  0  0  0  0
 19 20  4  0  0  0  0
 20 21  2  0  0  0  0
 21 22  4  0  0  0  0
 19 23  4  0  0  0  0
 22 23  4  0  0  0  0
 23 24  4  0  0  0  0
 17 25  4  0  0  0  0
 24 25  4  0  0  0  0
  8 26  1  0  0  0  0
  9 27  1  0  0  0  0
 10 28  1  0  0  0  0
 10 29  1  0  0  0  0
 11 30  1  0  0  0  0
 11 31  1  0  0  0  0
 12 32  1  0  0  0  0
 13 33  1  0  0  0  0
 13 34  1  0  0  0  0
 15 35  1  0  0  0  0
 20 36  1  0  0  0  0
 21 37  1  0  0  0  0
 25 38  1  0  0  0  0
 22 39  1  0  0  0  0
  3 40  1  0  0  0  0
  3 41  1  0  0  0  0
  3 42  1  0  0  0  0
  1 43  1  0  0  0  0
  1 44  1  0  0  0  0
  1 45  1  0  0  0  0
  4 46  1  0  0  0  0
  4 47  1  0  0  0  0
  4 48  1  0  0  0  0
M  END
