 xtb: 6.7.1 (edcfbbe)
          04272612573D

 48 51  0     0  0            999 V2000
    6.5306   -0.4309    1.4041 C   0  0  0  0  0  0  0  0  0  0  0  0
    6.2871    0.3149    0.0929 C   0  0  0  0  0  0  0  0  0  0  0  0
    7.0437    1.6433    0.0800 C   0  0  0  0  0  0  0  0  0  0  0  0
    6.6791   -0.5401   -1.1112 C   0  0  0  0  0  0  0  0  0  0  0  0
    4.8889    0.7126   -0.0076 O   0  0  0  0  0  0  0  0  0  0  0  0
    3.8981   -0.1896   -0.0260 C   0  0  0  0  0  0  0  0  0  0  0  0
    4.0285   -1.4013    0.0373 O   0  0  0  0  0  0  0  0  0  0  0  0
    2.7136    0.4388   -0.1236 N   0  0  0  0  0  0  0  0  0  0  0  0
    1.4470   -0.2560   -0.1901 C   0  0  0  0  0  0  0  0  0  0  0  0
    0.6523    0.1277   -1.4537 C   0  0  0  0  0  0  0  0  0  0  0  0
   -0.4106    1.1126   -0.9725 C   0  0  0  0  0  0  0  0  0  0  0  0
   -0.7970    0.5693    0.4090 C   0  0  0  0  0  0  0  0  0  0  0  0
    0.5396    0.1187    1.0033 C   0  0  0  0  0  0  0  0  0  0  0  0
   -1.7445   -0.5168    0.2820 N   0  0  0  0  0  0  0  0  0  0  0  0
   -1.5133   -1.8553    0.1759 C   0  0  0  0  0  0  0  0  0  0  0  0
   -2.5852   -2.5733    0.0167 N   0  0  0  0  0  0  0  0  0  0  0  0
   -3.6220   -1.6690   -0.0006 C   0  0  0  0  0  0  0  0  0  0  0  0
   -3.0970   -0.3653    0.1568 C   0  0  0  0  0  0  0  0  0  0  0  0
   -3.9763    0.7188    0.1537 C   0  0  0  0  0  0  0  0  0  0  0  0
   -3.9379    2.1334    0.2495 C   0  0  0  0  0  0  0  0  0  0  0  0
   -5.2294    2.5664    0.1619 C   0  0  0  0  0  0  0  0  0  0  0  0
   -6.0733    1.5052    0.0159 N   0  0  0  0  0  0  0  0  0  0  0  0
   -5.3434    0.3590    0.0023 C   0  0  0  0  0  0  0  0  0  0  0  0
   -5.8541   -0.8693   -0.1381 N   0  0  0  0  0  0  0  0  0  0  0  0
   -4.9992   -1.8706   -0.1415 C   0  0  0  0  0  0  0  0  0  0  0  0
    2.7230    1.4461   -0.1788 H   0  0  0  0  0  0  0  0  0  0  0  0
    1.7080   -1.3176   -0.1885 H   0  0  0  0  0  0  0  0  0  0  0  0
    1.3024    0.5510   -2.2159 H   0  0  0  0  0  0  0  0  0  0  0  0
    0.1760   -0.7599   -1.8699 H   0  0  0  0  0  0  0  0  0  0  0  0
   -1.2668    1.1660   -1.6427 H   0  0  0  0  0  0  0  0  0  0  0  0
    0.0092    2.1108   -0.8599 H   0  0  0  0  0  0  0  0  0  0  0  0
   -1.2803    1.3275    1.0299 H   0  0  0  0  0  0  0  0  0  0  0  0
    0.4177   -0.7031    1.7051 H   0  0  0  0  0  0  0  0  0  0  0  0
    0.9867    0.9531    1.5417 H   0  0  0  0  0  0  0  0  0  0  0  0
   -0.5317   -2.2814    0.2266 H   0  0  0  0  0  0  0  0  0  0  0  0
   -3.0699    2.7512    0.3595 H   0  0  0  0  0  0  0  0  0  0  0  0
   -5.6085    3.5683    0.1938 H   0  0  0  0  0  0  0  0  0  0  0  0
   -5.4120   -2.8614   -0.2590 H   0  0  0  0  0  0  0  0  0  0  0  0
   -7.0743    1.5488   -0.0750 H   0  0  0  0  0  0  0  0  0  0  0  0
    8.1100    1.4573    0.1507 H   0  0  0  0  0  0  0  0  0  0  0  0
    6.7303    2.2564    0.9200 H   0  0  0  0  0  0  0  0  0  0  0  0
    6.8338    2.1803   -0.8405 H   0  0  0  0  0  0  0  0  0  0  0  0
    5.9701   -1.3625    1.4164 H   0  0  0  0  0  0  0  0  0  0  0  0
    6.2139    0.1801    2.2462 H   0  0  0  0  0  0  0  0  0  0  0  0
    7.5879   -0.6542    1.5040 H   0  0  0  0  0  0  0  0  0  0  0  0
    7.7391   -0.7680   -1.0656 H   0  0  0  0  0  0  0  0  0  0  0  0
    6.1172   -1.4711   -1.1101 H   0  0  0  0  0  0  0  0  0  0  0  0
    6.4688   -0.0047   -2.0342 H   0  0  0  0  0  0  0  0  0  0  0  0
  1  2  1  0  0  0  0
  2  3  1  0  0  0  0
  2  4  1  0  0  0  0
  2  5  1  0  0  0  0
  5  6  1  0  0  0  0
  6  7  2  0  0  0  0
  6  8  4  0  0  0  0
  8  9  1  0  0  0  0
  9 10  1  0  0  0  0
 10 11  1  0  0  0  0
 11 12  1  0  0  0  0
  9 13  1  0  0  0  0
 12 13  1  0  0  0  0
 12 14  1  0  0  0  0
 14 15  4  0  0  0  0
 15 16  2  0  0  0  0
 16 17  4  0  0  0  0
 14 18  1  0  0  0  0
 17 18  4  0  0  0  0
 18 19  4  0  0  0  0
 19 20  4  0  0  0  0
 20 21  2  0  0  0  0
 21 22  4  0  0  0  0
 19 23  4  0  0  0  0
 22 23  4  0  0  0  0
 23 24  4  0  0  0  0
 17 25  4  0  0  0  0
 24 25  4  0  0  0  0
  8 26  1  0  0  0  0
  9 27  1  0  0  0  0
 10 28  1  0  0  0  0
 10 29  1  0  0  0  0
 11 30  1  0  0  0  0
 11 31  1  0  0  0  0
 12 32  1  0  0  0  0
 13 33  1  0  0  0  0
 13 34  1  0  0  0  0
 15 35  1  0  0  0  0
 20 36  1  0  0  0  0
 21 37  1  0  0  0  0
 25 38  1  0  0  0  0
 22 39  1  0  0  0  0
  3 40  1  0  0  0  0
  3 41  1  0  0  0  0
  3 42  1  0  0  0  0
  1 43  1  0  0  0  0
  1 44  1  0  0  0  0
  1 45  1  0  0  0  0
  4 46  1  0  0  0  0
  4 47  1  0  0  0  0
  4 48  1  0  0  0  0
M  END
