 xtb: 6.7.1 (edcfbbe)
          04182621513D

 48 51  0     0  0            999 V2000
    6.5430   -0.4199    1.3929 C   0  0  0  0  0  0  0  0  0  0  0  0
    6.2878    0.3224    0.0820 C   0  0  0  0  0  0  0  0  0  0  0  0
    7.0391    1.6537    0.0613 C   0  0  0  0  0  0  0  0  0  0  0  0
    6.6752   -0.5335   -1.1230 C   0  0  0  0  0  0  0  0  0  0  0  0
    4.8875    0.7143   -0.0098 O   0  0  0  0  0  0  0  0  0  0  0  0
    3.9000   -0.1918   -0.0208 C   0  0  0  0  0  0  0  0  0  0  0  0
    4.0357   -1.4030    0.0418 O   0  0  0  0  0  0  0  0  0  0  0  0
    2.7124    0.4319   -0.1087 N   0  0  0  0  0  0  0  0  0  0  0  0
    1.4485   -0.2678   -0.1765 C   0  0  0  0  0  0  0  0  0  0  0  0
    0.6565    0.1095   -1.4437 C   0  0  0  0  0  0  0  0  0  0  0  0
   -0.4047    1.0996   -0.9694 C   0  0  0  0  0  0  0  0  0  0  0  0
   -0.7968    0.5620    0.4128 C   0  0  0  0  0  0  0  0  0  0  0  0
    0.5365    0.1085    1.0128 C   0  0  0  0  0  0  0  0  0  0  0  0
   -1.7478   -0.5211    0.2862 N   0  0  0  0  0  0  0  0  0  0  0  0
   -1.5207   -1.8605    0.1829 C   0  0  0  0  0  0  0  0  0  0  0  0
   -2.5946   -2.5752    0.0224 N   0  0  0  0  0  0  0  0  0  0  0  0
   -3.6284   -1.6675    0.0013 C   0  0  0  0  0  0  0  0  0  0  0  0
   -3.0995   -0.3653    0.1578 C   0  0  0  0  0  0  0  0  0  0  0  0
   -3.9754    0.7215    0.1512 C   0  0  0  0  0  0  0  0  0  0  0  0
   -3.9326    2.1362    0.2449 C   0  0  0  0  0  0  0  0  0  0  0  0
   -5.2225    2.5732    0.1540 C   0  0  0  0  0  0  0  0  0  0  0  0
   -6.0696    1.5145    0.0077 N   0  0  0  0  0  0  0  0  0  0  0  0
   -5.3433    0.3660   -0.0026 C   0  0  0  0  0  0  0  0  0  0  0  0
   -5.8576   -0.8609   -0.1426 N   0  0  0  0  0  0  0  0  0  0  0  0
   -5.0059   -1.8649   -0.1426 C   0  0  0  0  0  0  0  0  0  0  0  0
    2.7179    1.4391   -0.1678 H   0  0  0  0  0  0  0  0  0  0  0  0
    1.7131   -1.3285   -0.1706 H   0  0  0  0  0  0  0  0  0  0  0  0
    1.3084    0.5264   -2.2077 H   0  0  0  0  0  0  0  0  0  0  0  0
    0.1787   -0.7798   -1.8547 H   0  0  0  0  0  0  0  0  0  0  0  0
   -1.2587    1.1533   -1.6422 H   0  0  0  0  0  0  0  0  0  0  0  0
    0.0181    2.0968   -0.8591 H   0  0  0  0  0  0  0  0  0  0  0  0
   -1.2794    1.3237    1.0300 H   0  0  0  0  0  0  0  0  0  0  0  0
    0.4094   -0.7135    1.7134 H   0  0  0  0  0  0  0  0  0  0  0  0
    0.9831    0.9414    1.5540 H   0  0  0  0  0  0  0  0  0  0  0  0
   -0.5406   -2.2898    0.2364 H   0  0  0  0  0  0  0  0  0  0  0  0
   -3.0629    2.7515    0.3556 H   0  0  0  0  0  0  0  0  0  0  0  0
   -5.5984    3.5764    0.1835 H   0  0  0  0  0  0  0  0  0  0  0  0
   -5.4215   -2.8545   -0.2599 H   0  0  0  0  0  0  0  0  0  0  0  0
   -7.0702    1.5611   -0.0848 H   0  0  0  0  0  0  0  0  0  0  0  0
    6.7289    2.2673    0.9021 H   0  0  0  0  0  0  0  0  0  0  0  0
    6.8209    2.1879   -0.8588 H   0  0  0  0  0  0  0  0  0  0  0  0
    8.1066    1.4721    0.1252 H   0  0  0  0  0  0  0  0  0  0  0  0
    7.6017   -0.6398    1.4858 H   0  0  0  0  0  0  0  0  0  0  0  0
    5.9854   -1.3532    1.4112 H   0  0  0  0  0  0  0  0  0  0  0  0
    6.2304    0.1920    2.2359 H   0  0  0  0  0  0  0  0  0  0  0  0
    6.1170   -1.4667   -1.1165 H   0  0  0  0  0  0  0  0  0  0  0  0
    6.4569   -0.0007   -2.0456 H   0  0  0  0  0  0  0  0  0  0  0  0
    7.7364   -0.7572   -1.0839 H   0  0  0  0  0  0  0  0  0  0  0  0
  1  2  1  0  0  0  0
  2  3  1  0  0  0  0
  2  4  1  0  0  0  0
  2  5  1  0  0  0  0
  5  6  1  0  0  0  0
  6  7  2  0  0  0  0
  6  8  4  0  0  0  0
  8  9  1  0  0  0  0
  9 10  1  0  0  0  0
 10 11  1  0  0  0  0
 11 12  1  0  0  0  0
  9 13  1  0  0  0  0
 12 13  1  0  0  0  0
 12 14  1  0  0  0  0
 14 15  4  0  0  0  0
 15 16  2  0  0  0  0
 16 17  4  0  0  0  0
 14 18  1  0  0  0  0
 17 18  4  0  0  0  0
 18 19  4  0  0  0  0
 19 20  4  0  0  0  0
 20 21  2  0  0  0  0
 21 22  4  0  0  0  0
 19 23  4  0  0  0  0
 22 23  4  0  0  0  0
 23 24  4  0  0  0  0
 17 25  4  0  0  0  0
 24 25  4  0  0  0  0
  8 26  1  0  0  0  0
  9 27  1  0  0  0  0
 10 28  1  0  0  0  0
 10 29  1  0  0  0  0
 11 30  1  0  0  0  0
 11 31  1  0  0  0  0
 12 32  1  0  0  0  0
 13 33  1  0  0  0  0
 13 34  1  0  0  0  0
 15 35  1  0  0  0  0
 20 36  1  0  0  0  0
 21 37  1  0  0  0  0
 25 38  1  0  0  0  0
 22 39  1  0  0  0  0
  3 40  1  0  0  0  0
  3 41  1  0  0  0  0
  3 42  1  0  0  0  0
  1 43  1  0  0  0  0
  1 44  1  0  0  0  0
  1 45  1  0  0  0  0
  4 46  1  0  0  0  0
  4 47  1  0  0  0  0
  4 48  1  0  0  0  0
M  END
