4E5W
 OpenBabel11252210453D

 57 61  0  0  1  0  0  0  0  0999 V2000
   -4.8187   -2.9905    0.1873 C   0  0  0  0  0  0  0  0  0  0  0  0
   -3.8201   -2.0526   -0.4808 C   0  0  0  0  0  0  0  0  0  0  0  0
   -2.3992   -2.4371   -0.0852 C   0  0  0  0  0  0  0  0  0  0  0  0
   -4.1050   -0.6480   -0.0698 N   0  3  2  0  0  0  0  0  0  0  0  0
   -5.4942   -0.2006   -0.3417 C   0  0  0  0  0  0  0  0  0  0  0  0
   -5.3853    1.3146   -0.3887 C   0  0  0  0  0  0  0  0  0  0  0  0
   -4.0830    1.5116   -1.1594 C   0  0  0  0  0  0  0  0  0  0  0  0
   -3.1823    0.3870   -0.6184 C   0  0  1  0  0  0  0  0  0  0  0  0
   -2.3398    0.8729    0.5793 C   0  0  0  0  0  0  0  0  0  0  0  0
   -2.6586    0.4666    1.7006 O   0  0  0  0  0  0  0  0  0  0  0  0
   -1.3543    1.7334    0.3619 N   0  0  0  0  0  0  0  0  0  0  0  0
   -0.8413    2.1613   -0.9231 C   0  0  0  0  0  0  0  0  0  0  0  0
    0.5870    1.6427   -1.1049 C   0  0  0  0  0  0  0  0  0  0  0  0
    1.4764    2.1178    0.0501 C   0  0  1  0  0  0  0  0  0  0  0  0
    0.8608    1.7629    1.4084 C   0  0  0  0  0  0  0  0  0  0  0  0
   -0.5837    2.2536    1.4781 C   0  0  0  0  0  0  0  0  0  0  0  0
    2.8071    1.5655   -0.0733 N   0  0  0  0  0  0  0  0  0  0  0  0
    3.9439    2.2973   -0.2455 C   0  0  0  0  0  0  0  0  0  0  0  0
    5.0275    1.5930   -0.3559 N   0  0  0  0  0  0  0  0  0  0  0  0
    4.6104    0.2870   -0.2533 C   0  0  0  0  0  0  0  0  0  0  0  0
    3.2053    0.2532   -0.0710 C   0  0  0  0  0  0  0  0  0  0  0  0
    2.5875   -0.9967    0.0584 C   0  0  0  0  0  0  0  0  0  0  0  0
    1.2951   -1.5526    0.2574 C   0  0  0  0  0  0  0  0  0  0  0  0
    1.4430   -2.9091    0.2827 C   0  0  0  0  0  0  0  0  0  0  0  0
    2.7515   -3.2394    0.1077 N   0  0  0  0  0  0  0  0  0  0  0  0
    3.4807   -2.1013   -0.0272 C   0  0  0  0  0  0  0  0  0  0  0  0
    4.8055   -2.0766   -0.2042 N   0  0  0  0  0  0  0  0  0  0  0  0
    5.3629   -0.8906   -0.3127 C   0  0  0  0  0  0  0  0  0  0  0  0
   -2.5531   -0.0487   -1.3925 H   0  0  0  0  0  0  0  0  0  0  0  0
    3.1378   -4.1680    0.0901 H   0  0  0  0  0  0  0  0  0  0  0  0
   -3.9360   -2.1028   -1.5680 H   0  0  0  0  0  0  0  0  0  0  0  0
   -3.9210   -0.5734    0.9628 H   0  0  0  0  0  0  0  0  0  0  0  0
   -5.7998   -0.5899   -1.3139 H   0  0  0  0  0  0  0  0  0  0  0  0
   -6.1731   -0.5555    0.4287 H   0  0  0  0  0  0  0  0  0  0  0  0
   -5.3015    1.7252    0.6177 H   0  0  0  0  0  0  0  0  0  0  0  0
   -6.2368    1.7740   -0.8817 H   0  0  0  0  0  0  0  0  0  0  0  0
   -4.2530    1.3766   -2.2267 H   0  0  0  0  0  0  0  0  0  0  0  0
   -3.6578    2.4978   -0.9961 H   0  0  0  0  0  0  0  0  0  0  0  0
   -1.4671    1.8089   -1.7376 H   0  0  0  0  0  0  0  0  0  0  0  0
   -0.8343    3.2552   -0.9383 H   0  0  0  0  0  0  0  0  0  0  0  0
    0.5916    0.5542   -1.1402 H   0  0  0  0  0  0  0  0  0  0  0  0
    0.9891    2.0116   -2.0487 H   0  0  0  0  0  0  0  0  0  0  0  0
    1.5907    3.2062   -0.0132 H   0  0  0  0  0  0  0  0  0  0  0  0
    0.8964    0.6854    1.5609 H   0  0  0  0  0  0  0  0  0  0  0  0
    1.4385    2.2290    2.2070 H   0  0  0  0  0  0  0  0  0  0  0  0
   -0.6099    3.3458    1.4348 H   0  0  0  0  0  0  0  0  0  0  0  0
   -1.0518    1.9220    2.4055 H   0  0  0  0  0  0  0  0  0  0  0  0
    3.9292    3.3691   -0.2854 H   0  0  0  0  0  0  0  0  0  0  0  0
    0.3697   -1.0320    0.3936 H   0  0  0  0  0  0  0  0  0  0  0  0
    0.6983   -3.6677    0.4168 H   0  0  0  0  0  0  0  0  0  0  0  0
    6.4334   -0.8633   -0.4527 H   0  0  0  0  0  0  0  0  0  0  0  0
   -2.2530   -3.4978   -0.2640 H   0  0  0  0  0  0  0  0  0  0  0  0
   -1.6464   -1.9071   -0.6602 H   0  0  0  0  0  0  0  0  0  0  0  0
   -2.2314   -2.2487    0.9729 H   0  0  0  0  0  0  0  0  0  0  0  0
   -5.8359   -2.8134   -0.1461 H   0  0  0  0  0  0  0  0  0  0  0  0
   -4.5679   -4.0170   -0.0625 H   0  0  0  0  0  0  0  0  0  0  0  0
   -4.7741   -2.8904    1.2689 H   0  0  0  0  0  0  0  0  0  0  0  0
  1  2  1  0  0  0  0
  2  3  1  0  0  0  0
  2  4  1  0  0  0  0
  4  8  1  0  0  0  0
  4 32  1  1  0  0  0
  5  6  1  0  0  0  0
  5  4  1  0  0  0  0
  6  7  1  0  0  0  0
  7  8  1  0  0  0  0
  8 29  1  6  0  0  0
  9  8  1  0  0  0  0
  9 11  1  0  0  0  0
  9 10  2  0  0  0  0
 12 13  1  0  0  0  0
 12 11  1  0  0  0  0
 13 14  1  0  0  0  0
 14 15  1  0  0  0  0
 14 17  1  0  0  0  0
 14 43  1  6  0  0  0
 15 16  1  0  0  0  0
 16 11  1  0  0  0  0
 18 17  1  0  0  0  0
 18 19  2  0  0  0  0
 20 21  2  0  0  0  0
 20 28  1  0  0  0  0
 20 19  1  0  0  0  0
 21 22  1  0  0  0  0
 21 17  1  0  0  0  0
 22 23  1  0  0  0  0
 22 26  2  0  0  0  0
 23 24  2  0  0  0  0
 24 25  1  0  0  0  0
 26 25  1  0  0  0  0
 26 27  1  0  0  0  0
 28 27  2  0  0  0  0
 30 25  1  0  0  0  0
 31  2  1  0  0  0  0
 33  5  1  0  0  0  0
 34  5  1  0  0  0  0
 35  6  1  0  0  0  0
 36  6  1  0  0  0  0
 37  7  1  0  0  0  0
 38  7  1  0  0  0  0
 39 12  1  0  0  0  0
 40 12  1  0  0  0  0
 41 13  1  0  0  0  0
 42 13  1  0  0  0  0
 44 15  1  0  0  0  0
 45 15  1  0  0  0  0
 46 16  1  0  0  0  0
 47 16  1  0  0  0  0
 48 18  1  0  0  0  0
 49 23  1  0  0  0  0
 50 24  1  0  0  0  0
 51 28  1  0  0  0  0
 52  3  1  0  0  0  0
 53  3  1  0  0  0  0
 54  3  1  0  0  0  0
 55  1  1  0  0  0  0
 56  1  1  0  0  0  0
 57  1  1  0  0  0  0
M  CHG  1   4   1
M  END
>  <charge>
1

>  <pKi>
7.66

$$$$
