 xtb: 6.7.1 (edcfbbe)
          04272612573D

 57 61  0     0  0            999 V2000
   -4.8175   -2.9900    0.1839 C   0  0  0  0  0  0  0  0  0  0  0  0
   -3.8202   -2.0501   -0.4836 C   0  0  0  0  0  0  0  0  0  0  0  0
   -2.3986   -2.4334   -0.0895 C   0  0  0  0  0  0  0  0  0  0  0  0
   -4.1065   -0.6464   -0.0705 N   0  0  0  0  0  0  0  0  0  0  0  0
   -5.4961   -0.1998   -0.3417 C   0  0  0  0  0  0  0  0  0  0  0  0
   -5.3886    1.3156   -0.3843 C   0  0  0  0  0  0  0  0  0  0  0  0
   -4.0865    1.5160   -1.1545 C   0  0  0  0  0  0  0  0  0  0  0  0
   -3.1849    0.3902   -0.6175 C   0  0  0  0  0  0  0  0  0  0  0  0
   -2.3411    0.8735    0.5802 C   0  0  0  0  0  0  0  0  0  0  0  0
   -2.6588    0.4650    1.7009 O   0  0  0  0  0  0  0  0  0  0  0  0
   -1.3557    1.7343    0.3633 N   0  0  0  0  0  0  0  0  0  0  0  0
   -0.8440    2.1636   -0.9217 C   0  0  0  0  0  0  0  0  0  0  0  0
    0.5828    1.6418   -1.1068 C   0  0  0  0  0  0  0  0  0  0  0  0
    1.4748    2.1148    0.0470 C   0  0  0  0  0  0  0  0  0  0  0  0
    0.8613    1.7578    1.4058 C   0  0  0  0  0  0  0  0  0  0  0  0
   -0.5823    2.2507    1.4792 C   0  0  0  0  0  0  0  0  0  0  0  0
    2.8055    1.5631   -0.0794 N   0  0  0  0  0  0  0  0  0  0  0  0
    3.9409    2.2963   -0.2548 C   0  0  0  0  0  0  0  0  0  0  0  0
    5.0256    1.5937   -0.3643 N   0  0  0  0  0  0  0  0  0  0  0  0
    4.6109    0.2872   -0.2570 C   0  0  0  0  0  0  0  0  0  0  0  0
    3.2059    0.2515   -0.0739 C   0  0  0  0  0  0  0  0  0  0  0  0
    2.5904   -0.9993    0.0590 C   0  0  0  0  0  0  0  0  0  0  0  0
    1.2990   -1.5572    0.2586 C   0  0  0  0  0  0  0  0  0  0  0  0
    1.4497   -2.9132    0.2900 C   0  0  0  0  0  0  0  0  0  0  0  0
    2.7593   -3.2414    0.1186 N   0  0  0  0  0  0  0  0  0  0  0  0
    3.4860   -2.1024   -0.0211 C   0  0  0  0  0  0  0  0  0  0  0  0
    4.8107   -2.0756   -0.1979 N   0  0  0  0  0  0  0  0  0  0  0  0
    5.3657   -0.8891   -0.3118 C   0  0  0  0  0  0  0  0  0  0  0  0
   -2.5566   -0.0433   -1.3936 H   0  0  0  0  0  0  0  0  0  0  0  0
    3.1481   -4.1692    0.1070 H   0  0  0  0  0  0  0  0  0  0  0  0
   -3.9366   -2.0989   -1.5708 H   0  0  0  0  0  0  0  0  0  0  0  0
   -3.9225   -0.5735    0.9622 H   0  0  0  0  0  0  0  0  0  0  0  0
   -5.8007   -0.5868   -1.3151 H   0  0  0  0  0  0  0  0  0  0  0  0
   -6.1751   -0.5576    0.4273 H   0  0  0  0  0  0  0  0  0  0  0  0
   -5.3049    1.7233    0.6234 H   0  0  0  0  0  0  0  0  0  0  0  0
   -6.2405    1.7759   -0.8757 H   0  0  0  0  0  0  0  0  0  0  0  0
   -4.2566    1.3846   -2.2223 H   0  0  0  0  0  0  0  0  0  0  0  0
   -3.6619    2.5019   -0.9878 H   0  0  0  0  0  0  0  0  0  0  0  0
   -1.4721    1.8148   -1.7358 H   0  0  0  0  0  0  0  0  0  0  0  0
   -0.8342    3.2575   -0.9345 H   0  0  0  0  0  0  0  0  0  0  0  0
    0.5849    0.5533   -1.1424 H   0  0  0  0  0  0  0  0  0  0  0  0
    0.9838    2.0105   -2.0510 H   0  0  0  0  0  0  0  0  0  0  0  0
    1.5889    3.2033   -0.0148 H   0  0  0  0  0  0  0  0  0  0  0  0
    0.8951    0.6800    1.5557 H   0  0  0  0  0  0  0  0  0  0  0  0
    1.4414    2.2210    2.2043 H   0  0  0  0  0  0  0  0  0  0  0  0
   -0.6067    3.3431    1.4385 H   0  0  0  0  0  0  0  0  0  0  0  0
   -1.0491    1.9178    2.4067 H   0  0  0  0  0  0  0  0  0  0  0  0
    3.9243    3.3680   -0.2979 H   0  0  0  0  0  0  0  0  0  0  0  0
    0.3721   -1.0381    0.3902 H   0  0  0  0  0  0  0  0  0  0  0  0
    0.7063   -3.6728    0.4262 H   0  0  0  0  0  0  0  0  0  0  0  0
    6.4361   -0.8604   -0.4520 H   0  0  0  0  0  0  0  0  0  0  0  0
   -2.2510   -3.4935   -0.2702 H   0  0  0  0  0  0  0  0  0  0  0  0
   -1.6468   -1.9013   -0.6640 H   0  0  0  0  0  0  0  0  0  0  0  0
   -2.2304   -2.2465    0.9689 H   0  0  0  0  0  0  0  0  0  0  0  0
   -5.8348   -2.8141   -0.1494 H   0  0  0  0  0  0  0  0  0  0  0  0
   -4.5651   -4.0159   -0.0665 H   0  0  0  0  0  0  0  0  0  0  0  0
   -4.7731   -2.8904    1.2656 H   0  0  0  0  0  0  0  0  0  0  0  0
  1  2  1  0  0  0  0
  2  3  1  0  0  0  0
  2  4  1  0  0  0  0
  4  5  1  0  0  0  0
  5  6  1  0  0  0  0
  6  7  1  0  0  0  0
  4  8  1  0  0  0  0
  7  8  1  0  0  0  0
  8  9  1  0  0  0  0
  9 10  2  0  0  0  0
  9 11  4  0  0  0  0
 11 12  1  0  0  0  0
 12 13  1  0  0  0  0
 13 14  1  0  0  0  0
 14 15  1  0  0  0  0
 11 16  1  0  0  0  0
 15 16  1  0  0  0  0
 14 17  1  0  0  0  0
 17 18  4  0  0  0  0
 18 19  2  0  0  0  0
 19 20  4  0  0  0  0
 17 21  1  0  0  0  0
 20 21  4  0  0  0  0
 21 22  4  0  0  0  0
 22 23  4  0  0  0  0
 23 24  2  0  0  0  0
 24 25  4  0  0  0  0
 22 26  4  0  0  0  0
 25 26  4  0  0  0  0
 26 27  4  0  0  0  0
 20 28  4  0  0  0  0
 27 28  2  0  0  0  0
  8 29  1  0  0  0  0
 25 30  1  0  0  0  0
  2 31  1  0  0  0  0
  4 32  1  0  0  0  0
  5 33  1  0  0  0  0
  5 34  1  0  0  0  0
  6 35  1  0  0  0  0
  6 36  1  0  0  0  0
  7 37  1  0  0  0  0
  7 38  1  0  0  0  0
 12 39  1  0  0  0  0
 12 40  1  0  0  0  0
 13 41  1  0  0  0  0
 13 42  1  0  0  0  0
 14 43  1  0  0  0  0
 15 44  1  0  0  0  0
 15 45  1  0  0  0  0
 16 46  1  0  0  0  0
 16 47  1  0  0  0  0
 18 48  1  0  0  0  0
 23 49  1  0  0  0  0
 24 50  1  0  0  0  0
 28 51  1  0  0  0  0
  3 52  1  0  0  0  0
  3 53  1  0  0  0  0
  3 54  1  0  0  0  0
  1 55  1  0  0  0  0
  1 56  1  0  0  0  0
  1 57  1  0  0  0  0
M  CHG  1   1   1
M  END
