 xtb: 6.7.1 (edcfbbe)
          04182621513D

 42 45  0     0  0            999 V2000
   -0.1903   -3.4184    0.0005 C   0  0  0  0  0  0  0  0  0  0  0  0
    0.0003   -1.9006    0.0002 C   0  0  0  0  0  0  0  0  0  0  0  0
   -0.6359   -1.2919   -1.2619 C   0  0  0  0  0  0  0  0  0  0  0  0
   -2.1638   -1.3666   -1.2212 C   0  0  0  0  0  0  0  0  0  0  0  0
   -2.7130   -0.8184    0.0003 N   0  0  0  0  0  0  0  0  0  0  0  0
   -2.1636   -1.3660    1.2219 C   0  0  0  0  0  0  0  0  0  0  0  0
   -0.6356   -1.2915    1.2623 C   0  0  0  0  0  0  0  0  0  0  0  0
   -3.1758    0.7733   -0.0002 S   0  0  0  0  0  0  0  0  0  0  0  0
   -2.7524    1.4155    1.2301 O   0  0  0  0  0  0  0  0  0  0  0  0
   -2.7514    1.4153   -1.2302 O   0  0  0  0  0  0  0  0  0  0  0  0
   -4.9628    0.6574   -0.0009 C   0  0  0  0  0  0  0  0  0  0  0  0
    1.4313   -1.5848   -0.0001 N   0  0  0  0  0  0  0  0  0  0  0  0
    2.4517   -2.4928   -0.0003 C   0  0  0  0  0  0  0  0  0  0  0  0
    3.6401   -1.9755   -0.0004 N   0  0  0  0  0  0  0  0  0  0  0  0
    3.4340   -0.6194   -0.0003 C   0  0  0  0  0  0  0  0  0  0  0  0
    2.0406   -0.3496   -0.0001 C   0  0  0  0  0  0  0  0  0  0  0  0
    1.6484    0.9990    0.0000 C   0  0  0  0  0  0  0  0  0  0  0  0
    0.4647    1.7888    0.0001 C   0  0  0  0  0  0  0  0  0  0  0  0
    0.8544    3.0964    0.0002 C   0  0  0  0  0  0  0  0  0  0  0  0
    2.2128    3.1820    0.0002 N   0  0  0  0  0  0  0  0  0  0  0  0
    2.7314    1.9266   -0.0000 C   0  0  0  0  0  0  0  0  0  0  0  0
    4.0423    1.6710   -0.0000 N   0  0  0  0  0  0  0  0  0  0  0  0
    4.3866    0.4024   -0.0002 C   0  0  0  0  0  0  0  0  0  0  0  0
   -0.3434   -0.2459   -1.3511 H   0  0  0  0  0  0  0  0  0  0  0  0
   -0.2720   -1.8185   -2.1453 H   0  0  0  0  0  0  0  0  0  0  0  0
   -2.5745   -0.7812   -2.0430 H   0  0  0  0  0  0  0  0  0  0  0  0
   -2.5081   -2.3994   -1.3109 H   0  0  0  0  0  0  0  0  0  0  0  0
   -2.5741   -0.7802    2.0435 H   0  0  0  0  0  0  0  0  0  0  0  0
   -2.5079   -2.3987    1.3121 H   0  0  0  0  0  0  0  0  0  0  0  0
   -0.2716   -1.8179    2.1457 H   0  0  0  0  0  0  0  0  0  0  0  0
   -0.3430   -0.2455    1.3512 H   0  0  0  0  0  0  0  0  0  0  0  0
    2.2978   -3.5507    0.0000 H   0  0  0  0  0  0  0  0  0  0  0  0
   -0.5588    1.4700    0.0002 H   0  0  0  0  0  0  0  0  0  0  0  0
    0.2388    3.9735    0.0005 H   0  0  0  0  0  0  0  0  0  0  0  0
    5.4428    0.1803   -0.0003 H   0  0  0  0  0  0  0  0  0  0  0  0
    2.7614    4.0254    0.0004 H   0  0  0  0  0  0  0  0  0  0  0  0
    0.2525   -3.8624   -0.8871 H   0  0  0  0  0  0  0  0  0  0  0  0
    0.2531   -3.8621    0.8878 H   0  0  0  0  0  0  0  0  0  0  0  0
   -1.2490   -3.6511    0.0009 H   0  0  0  0  0  0  0  0  0  0  0  0
   -5.3582    1.6642   -0.0009 H   0  0  0  0  0  0  0  0  0  0  0  0
   -5.2515    0.1246    0.8937 H   0  0  0  0  0  0  0  0  0  0  0  0
   -5.2508    0.1251   -0.8960 H   0  0  0  0  0  0  0  0  0  0  0  0
  1  2  1  0  0  0  0
  2  3  1  0  0  0  0
  3  4  1  0  0  0  0
  4  5  1  0  0  0  0
  5  6  1  0  0  0  0
  2  7  1  0  0  0  0
  6  7  1  0  0  0  0
  5  8  1  0  0  0  0
  8  9  2  0  0  0  0
  8 10  2  0  0  0  0
  8 11  1  0  0  0  0
  2 12  1  0  0  0  0
 12 13  4  0  0  0  0
 13 14  2  0  0  0  0
 14 15  4  0  0  0  0
 12 16  1  0  0  0  0
 15 16  4  0  0  0  0
 16 17  4  0  0  0  0
 17 18  4  0  0  0  0
 18 19  2  0  0  0  0
 19 20  4  0  0  0  0
 17 21  4  0  0  0  0
 20 21  4  0  0  0  0
 21 22  4  0  0  0  0
 15 23  4  0  0  0  0
 22 23  4  0  0  0  0
  3 24  1  0  0  0  0
  3 25  1  0  0  0  0
  4 26  1  0  0  0  0
  4 27  1  0  0  0  0
  6 28  1  0  0  0  0
  6 29  1  0  0  0  0
  7 30  1  0  0  0  0
  7 31  1  0  0  0  0
 13 32  1  0  0  0  0
 18 33  1  0  0  0  0
 19 34  1  0  0  0  0
 23 35  1  0  0  0  0
 20 36  1  0  0  0  0
  1 37  1  0  0  0  0
  1 38  1  0  0  0  0
  1 39  1  0  0  0  0
 11 40  1  0  0  0  0
 11 41  1  0  0  0  0
 11 42  1  0  0  0  0
M  END
