 xtb: 6.7.1 (edcfbbe)
          04182621513D

 57 61  0     0  0            999 V2000
   -6.5949   -0.8180   -0.3788 C   0  0  0  0  0  0  0  0  0  0  0  0
   -5.5071   -0.0143    0.3239 C   0  0  0  0  0  0  0  0  0  0  0  0
   -5.5035    1.4196   -0.1935 C   0  0  0  0  0  0  0  0  0  0  0  0
   -4.1790   -0.6455    0.0795 N   0  0  0  0  0  0  0  0  0  0  0  0
   -4.0978   -2.0843    0.4328 C   0  0  0  0  0  0  0  0  0  0  0  0
   -2.6082   -2.3233    0.6180 C   0  0  0  0  0  0  0  0  0  0  0  0
   -2.1842   -1.0691    1.3762 C   0  0  0  0  0  0  0  0  0  0  0  0
   -3.0198    0.0427    0.7177 C   0  0  0  0  0  0  0  0  0  0  0  0
   -2.2760    0.7492   -0.4349 C   0  0  0  0  0  0  0  0  0  0  0  0
   -2.6232    0.4724   -1.5870 O   0  0  0  0  0  0  0  0  0  0  0  0
   -1.3288    1.6324   -0.1494 N   0  0  0  0  0  0  0  0  0  0  0  0
   -0.6232    2.3104   -1.2228 C   0  0  0  0  0  0  0  0  0  0  0  0
    0.8425    1.8842   -1.2463 C   0  0  0  0  0  0  0  0  0  0  0  0
    1.4905    2.1245    0.1223 C   0  0  0  0  0  0  0  0  0  0  0  0
    0.6575    1.5201    1.2598 C   0  0  0  0  0  0  0  0  0  0  0  0
   -0.8043    1.9622    1.1589 C   0  0  0  0  0  0  0  0  0  0  0  0
    2.8322    1.5855    0.1507 N   0  0  0  0  0  0  0  0  0  0  0  0
    3.9664    2.3120    0.3568 C   0  0  0  0  0  0  0  0  0  0  0  0
    5.0585    1.6125    0.3772 N   0  0  0  0  0  0  0  0  0  0  0  0
    4.6500    0.3156    0.1733 C   0  0  0  0  0  0  0  0  0  0  0  0
    3.2412    0.2824    0.0231 C   0  0  0  0  0  0  0  0  0  0  0  0
    2.6305   -0.9588   -0.1986 C   0  0  0  0  0  0  0  0  0  0  0  0
    1.3393   -1.5110   -0.4188 C   0  0  0  0  0  0  0  0  0  0  0  0
    1.4984   -2.8600   -0.5523 C   0  0  0  0  0  0  0  0  0  0  0  0
    2.8125   -3.1895   -0.4261 N   0  0  0  0  0  0  0  0  0  0  0  0
    3.5344   -2.0579   -0.2179 C   0  0  0  0  0  0  0  0  0  0  0  0
    4.8626   -2.0343   -0.0685 N   0  0  0  0  0  0  0  0  0  0  0  0
    5.4133   -0.8552    0.1191 C   0  0  0  0  0  0  0  0  0  0  0  0
   -3.3759    0.7712    1.4448 H   0  0  0  0  0  0  0  0  0  0  0  0
    3.2075   -4.1126   -0.4884 H   0  0  0  0  0  0  0  0  0  0  0  0
   -5.6785   -0.0268    1.4048 H   0  0  0  0  0  0  0  0  0  0  0  0
   -3.9587   -0.5341   -0.9426 H   0  0  0  0  0  0  0  0  0  0  0  0
   -4.6285   -2.2420    1.3727 H   0  0  0  0  0  0  0  0  0  0  0  0
   -4.5367   -2.6998   -0.3475 H   0  0  0  0  0  0  0  0  0  0  0  0
   -2.1043   -2.3780   -0.3474 H   0  0  0  0  0  0  0  0  0  0  0  0
   -2.4008   -3.2345    1.1708 H   0  0  0  0  0  0  0  0  0  0  0  0
   -2.4481   -1.1597    2.4290 H   0  0  0  0  0  0  0  0  0  0  0  0
   -1.1159   -0.8908    1.3049 H   0  0  0  0  0  0  0  0  0  0  0  0
   -1.1061    2.0597   -2.1678 H   0  0  0  0  0  0  0  0  0  0  0  0
   -0.6977    3.3885   -1.0573 H   0  0  0  0  0  0  0  0  0  0  0  0
    0.9196    0.8312   -1.5121 H   0  0  0  0  0  0  0  0  0  0  0  0
    1.3731    2.4560   -2.0080 H   0  0  0  0  0  0  0  0  0  0  0  0
    1.5880    3.2041    0.2837 H   0  0  0  0  0  0  0  0  0  0  0  0
    0.7310    0.4345    1.2143 H   0  0  0  0  0  0  0  0  0  0  0  0
    1.0666    1.8413    2.2179 H   0  0  0  0  0  0  0  0  0  0  0  0
   -0.8624    3.0479    1.2806 H   0  0  0  0  0  0  0  0  0  0  0  0
   -1.3828    1.4897    1.9477 H   0  0  0  0  0  0  0  0  0  0  0  0
    3.9432    3.3760    0.4908 H   0  0  0  0  0  0  0  0  0  0  0  0
    0.4074   -0.9913   -0.5058 H   0  0  0  0  0  0  0  0  0  0  0  0
    0.7586   -3.6145   -0.7303 H   0  0  0  0  0  0  0  0  0  0  0  0
    6.4866   -0.8284    0.2347 H   0  0  0  0  0  0  0  0  0  0  0  0
   -6.4956    1.8457   -0.0798 H   0  0  0  0  0  0  0  0  0  0  0  0
   -4.8093    2.0581    0.3445 H   0  0  0  0  0  0  0  0  0  0  0  0
   -5.2463    1.4431   -1.2502 H   0  0  0  0  0  0  0  0  0  0  0  0
   -6.3884   -0.8943   -1.4434 H   0  0  0  0  0  0  0  0  0  0  0  0
   -6.7033   -1.8143    0.0369 H   0  0  0  0  0  0  0  0  0  0  0  0
   -7.5469   -0.3091   -0.2611 H   0  0  0  0  0  0  0  0  0  0  0  0
  1  2  1  0  0  0  0
  2  3  1  0  0  0  0
  2  4  1  0  0  0  0
  4  5  1  0  0  0  0
  5  6  1  0  0  0  0
  6  7  1  0  0  0  0
  4  8  1  0  0  0  0
  7  8  1  0  0  0  0
  8  9  1  0  0  0  0
  9 10  2  0  0  0  0
  9 11  4  0  0  0  0
 11 12  1  0  0  0  0
 12 13  1  0  0  0  0
 13 14  1  0  0  0  0
 14 15  1  0  0  0  0
 11 16  1  0  0  0  0
 15 16  1  0  0  0  0
 14 17  1  0  0  0  0
 17 18  4  0  0  0  0
 18 19  2  0  0  0  0
 19 20  4  0  0  0  0
 17 21  1  0  0  0  0
 20 21  4  0  0  0  0
 21 22  4  0  0  0  0
 22 23  4  0  0  0  0
 23 24  2  0  0  0  0
 24 25  4  0  0  0  0
 22 26  4  0  0  0  0
 25 26  4  0  0  0  0
 26 27  4  0  0  0  0
 20 28  4  0  0  0  0
 27 28  2  0  0  0  0
  8 29  1  0  0  0  0
 25 30  1  0  0  0  0
  2 31  1  0  0  0  0
  4 32  1  0  0  0  0
  5 33  1  0  0  0  0
  5 34  1  0  0  0  0
  6 35  1  0  0  0  0
  6 36  1  0  0  0  0
  7 37  1  0  0  0  0
  7 38  1  0  0  0  0
 12 39  1  0  0  0  0
 12 40  1  0  0  0  0
 13 41  1  0  0  0  0
 13 42  1  0  0  0  0
 14 43  1  0  0  0  0
 15 44  1  0  0  0  0
 15 45  1  0  0  0  0
 16 46  1  0  0  0  0
 16 47  1  0  0  0  0
 18 48  1  0  0  0  0
 23 49  1  0  0  0  0
 24 50  1  0  0  0  0
 28 51  1  0  0  0  0
  3 52  1  0  0  0  0
  3 53  1  0  0  0  0
  3 54  1  0  0  0  0
  1 55  1  0  0  0  0
  1 56  1  0  0  0  0
  1 57  1  0  0  0  0
M  CHG  1   1   1
M  END
