4E4N
 OpenBabel11252210453D

 48 51  0  0  1  0  0  0  0  0999 V2000
  -17.5200   35.8112    1.0016 C   0  0  0  0  0  0  0  0  0  0  0  0
  -17.6614   36.0308   -0.4968 C   0  0  0  0  0  0  0  0  0  0  0  0
  -19.1103   36.1366   -0.9602 C   0  0  0  0  0  0  0  0  0  0  0  0
  -16.7661   37.1282   -1.0481 C   0  0  0  0  0  0  0  0  0  0  0  0
  -17.2845   34.7319   -1.1773 O   0  0  0  0  0  0  0  0  0  0  0  0
  -16.0321   34.2143   -1.0801 C   0  0  0  0  0  0  0  0  0  0  0  0
  -15.1071   34.7047   -0.4427 O   0  0  0  0  0  0  0  0  0  0  0  0
  -15.9431   33.0856   -1.8986 N   0  0  0  0  0  0  0  0  0  0  0  0
  -14.8304   32.1170   -1.6740 C   0  0  2  0  0  0  0  0  0  0  0  0
  -14.5394   31.3718   -2.9998 C   0  0  0  0  0  0  0  0  0  0  0  0
  -14.4710   29.8748   -2.6696 C   0  0  0  0  0  0  0  0  0  0  0  0
  -15.2339   29.6970   -1.3352 C   0  0  2  0  0  0  0  0  0  0  0  0
  -15.1941   31.0559   -0.6054 C   0  0  0  0  0  0  0  0  0  0  0  0
  -14.6264   28.6116   -0.5255 N   0  0  0  0  0  0  0  0  0  0  0  0
  -13.3524   28.6331    0.1028 C   0  0  0  0  0  0  0  0  0  0  0  0
  -13.0660   27.4603    0.6982 N   0  0  0  0  0  0  0  0  0  0  0  0
  -14.1625   26.6188    0.4463 C   0  0  0  0  0  0  0  0  0  0  0  0
  -15.1432   27.3271   -0.3322 C   0  0  0  0  0  0  0  0  0  0  0  0
  -16.3193   26.6539   -0.7229 C   0  0  0  0  0  0  0  0  0  0  0  0
  -17.4998   26.9224   -1.4764 C   0  0  0  0  0  0  0  0  0  0  0  0
  -18.2657   25.7601   -1.4816 C   0  0  0  0  0  0  0  0  0  0  0  0
  -17.6099   24.7570   -0.7522 N   0  0  0  0  0  0  0  0  0  0  0  0
  -16.4078   25.2834   -0.2768 C   0  0  0  0  0  0  0  0  0  0  0  0
  -15.4725   24.5909    0.4848 N   0  0  0  0  0  0  0  0  0  0  0  0
  -14.3739   25.2611    0.8347 C   0  0  0  0  0  0  0  0  0  0  0  0
  -16.8247   32.6838   -2.2492 H   0  0  0  0  0  0  0  0  0  0  0  0
  -13.9304   32.7005   -1.3444 H   0  0  0  0  0  0  0  0  0  0  0  0
  -15.3461   31.5590   -3.7493 H   0  0  0  0  0  0  0  0  0  0  0  0
  -13.5762   31.7255   -3.4359 H   0  0  0  0  0  0  0  0  0  0  0  0
  -13.4084   29.5508   -2.5648 H   0  0  0  0  0  0  0  0  0  0  0  0
  -14.9427   29.2644   -3.4729 H   0  0  0  0  0  0  0  0  0  0  0  0
  -16.3023   29.4132   -1.5355 H   0  0  0  0  0  0  0  0  0  0  0  0
  -14.4337   31.0706    0.2096 H   0  0  0  0  0  0  0  0  0  0  0  0
  -16.1821   31.2662   -0.1326 H   0  0  0  0  0  0  0  0  0  0  0  0
  -12.7064   29.5080    0.0874 H   0  0  0  0  0  0  0  0  0  0  0  0
  -17.7553   27.8459   -1.9603 H   0  0  0  0  0  0  0  0  0  0  0  0
  -19.2235   25.5790   -1.9519 H   0  0  0  0  0  0  0  0  0  0  0  0
  -13.6196   24.7368    1.4388 H   0  0  0  0  0  0  0  0  0  0  0  0
  -17.9407   23.8108   -0.6022 H   0  0  0  0  0  0  0  0  0  0  0  0
  -19.1602   36.3087   -2.0594 H   0  0  0  0  0  0  0  0  0  0  0  0
  -19.6081   36.9870   -0.4395 H   0  0  0  0  0  0  0  0  0  0  0  0
  -19.6598   35.1965   -0.7225 H   0  0  0  0  0  0  0  0  0  0  0  0
  -16.4501   35.6454    1.2715 H   0  0  0  0  0  0  0  0  0  0  0  0
  -18.1095   34.9216    1.3210 H   0  0  0  0  0  0  0  0  0  0  0  0
  -17.8926   36.7050    1.5530 H   0  0  0  0  0  0  0  0  0  0  0  0
  -15.7058   36.9542   -0.7471 H   0  0  0  0  0  0  0  0  0  0  0  0
  -16.8204   37.1559   -2.1601 H   0  0  0  0  0  0  0  0  0  0  0  0
  -17.0940   38.1161   -0.6497 H   0  0  0  0  0  0  0  0  0  0  0  0
  1  2  1  0  0  0  0
  2  3  1  0  0  0  0
  2  4  1  0  0  0  0
  2  5  1  0  0  0  0
  6  8  1  0  0  0  0
  6  5  1  0  0  0  0
  6  7  2  0  0  0  0
  9  8  1  0  0  0  0
  9 27  1  6  0  0  0
 10 11  1  0  0  0  0
 10  9  1  0  0  0  0
 11 12  1  0  0  0  0
 12 13  1  0  0  0  0
 12 14  1  0  0  0  0
 12 32  1  1  0  0  0
 13  9  1  0  0  0  0
 15 14  1  0  0  0  0
 15 16  2  0  0  0  0
 17 18  2  0  0  0  0
 17 25  1  0  0  0  0
 17 16  1  0  0  0  0
 18 19  1  0  0  0  0
 18 14  1  0  0  0  0
 19 20  1  0  0  0  0
 19 23  2  0  0  0  0
 20 21  2  0  0  0  0
 21 22  1  0  0  0  0
 23 22  1  0  0  0  0
 23 24  1  0  0  0  0
 25 24  2  0  0  0  0
 26  8  1  0  0  0  0
 28 10  1  0  0  0  0
 29 10  1  0  0  0  0
 30 11  1  0  0  0  0
 31 11  1  0  0  0  0
 33 13  1  0  0  0  0
 34 13  1  0  0  0  0
 35 15  1  0  0  0  0
 36 20  1  0  0  0  0
 37 21  1  0  0  0  0
 38 25  1  0  0  0  0
 39 22  1  0  0  0  0
 40  3  1  0  0  0  0
 41  3  1  0  0  0  0
 42  3  1  0  0  0  0
 43  1  1  0  0  0  0
 44  1  1  0  0  0  0
 45  1  1  0  0  0  0
 46  4  1  0  0  0  0
 47  4  1  0  0  0  0
 48  4  1  0  0  0  0
M  END
>  <charge>
0

>  <pKi>
9.05

$$$$
