4E4L
 OpenBabel11252210453D

 42 45  0  0  0  0  0  0  0  0999 V2000
  -14.6795   29.4239   -2.9527 C   0  0  0  0  0  0  0  0  0  0  0  0
  -14.3863   29.8729   -1.5170 C   0  0  0  0  0  0  0  0  0  0  0  0
  -13.2875   30.9672   -1.5032 C   0  0  0  0  0  0  0  0  0  0  0  0
  -13.7944   32.2804   -2.1242 C   0  0  0  0  0  0  0  0  0  0  0  0
  -15.0331   32.7419   -1.4325 N   0  0  0  0  0  0  0  0  0  0  0  0
  -16.1261   31.7271   -1.3710 C   0  0  0  0  0  0  0  0  0  0  0  0
  -15.6068   30.4253   -0.7440 C   0  0  0  0  0  0  0  0  0  0  0  0
  -15.5048   34.3656   -1.6828 S   0  0  0  0  0  0  0  0  0  0  0  0
  -16.5681   34.6321   -0.7031 O   0  0  0  0  0  0  0  0  0  0  0  0
  -14.2881   35.1743   -1.5248 O   0  0  0  0  0  0  0  0  0  0  0  0
  -16.1121   34.4831   -3.2720 C   0  0  0  0  0  0  0  0  0  0  0  0
  -13.8916   28.6511   -0.7693 N   0  0  0  0  0  0  0  0  0  0  0  0
  -12.5942   28.4814   -0.2158 C   0  0  0  0  0  0  0  0  0  0  0  0
  -12.4135   27.2540    0.3031 N   0  0  0  0  0  0  0  0  0  0  0  0
  -13.6169   26.5675    0.0874 C   0  0  0  0  0  0  0  0  0  0  0  0
  -14.5566   27.4269   -0.5874 C   0  0  0  0  0  0  0  0  0  0  0  0
  -15.8334   26.8969   -0.8943 C   0  0  0  0  0  0  0  0  0  0  0  0
  -17.0505   27.3123   -1.5156 C   0  0  0  0  0  0  0  0  0  0  0  0
  -17.9360   26.2391   -1.4870 C   0  0  0  0  0  0  0  0  0  0  0  0
  -17.3261   25.1430   -0.8638 N   0  0  0  0  0  0  0  0  0  0  0  0
  -16.0351   25.5230   -0.4905 C   0  0  0  0  0  0  0  0  0  0  0  0
  -15.1292   24.6922    0.1579 N   0  0  0  0  0  0  0  0  0  0  0  0
  -13.9401   25.2230    0.4395 C   0  0  0  0  0  0  0  0  0  0  0  0
  -12.9866   31.1849   -0.4471 H   0  0  0  0  0  0  0  0  0  0  0  0
  -12.3932   30.6326   -2.0836 H   0  0  0  0  0  0  0  0  0  0  0  0
  -13.0030   33.0676   -1.9744 H   0  0  0  0  0  0  0  0  0  0  0  0
  -13.9695   32.1393   -3.2237 H   0  0  0  0  0  0  0  0  0  0  0  0
  -16.9412   32.1401   -0.7131 H   0  0  0  0  0  0  0  0  0  0  0  0
  -16.5417   31.5148   -2.3918 H   0  0  0  0  0  0  0  0  0  0  0  0
  -16.4367   29.6842   -0.7112 H   0  0  0  0  0  0  0  0  0  0  0  0
  -15.2947   30.6352    0.3122 H   0  0  0  0  0  0  0  0  0  0  0  0
  -11.8380   29.2621   -0.2120 H   0  0  0  0  0  0  0  0  0  0  0  0
  -17.2733   28.2726   -1.9417 H   0  0  0  0  0  0  0  0  0  0  0  0
  -18.9484   26.1827   -1.8649 H   0  0  0  0  0  0  0  0  0  0  0  0
  -13.1991   24.5956    0.9559 H   0  0  0  0  0  0  0  0  0  0  0  0
  -17.7422   24.2319   -0.7091 H   0  0  0  0  0  0  0  0  0  0  0  0
  -15.4446   28.6184   -2.9879 H   0  0  0  0  0  0  0  0  0  0  0  0
  -15.0521   30.2809   -3.5592 H   0  0  0  0  0  0  0  0  0  0  0  0
  -13.7472   29.0368   -3.4283 H   0  0  0  0  0  0  0  0  0  0  0  0
  -16.4301   35.5349   -3.5298 H   0  0  0  0  0  0  0  0  0  0  0  0
  -17.0235   33.8482   -3.4484 H   0  0  0  0  0  0  0  0  0  0  0  0
  -15.3646   34.1989   -4.0620 H   0  0  0  0  0  0  0  0  0  0  0  0
  1  2  1  0  0  0  0
  2  3  1  0  0  0  0
  2  7  1  0  0  0  0
  2 12  1  0  0  0  0
  3  4  1  0  0  0  0
  4  5  1  0  0  0  0
  5  8  1  0  0  0  0
  6  7  1  0  0  0  0
  6  5  1  0  0  0  0
  9  8  2  0  0  0  0
 10  8  2  0  0  0  0
 11  8  1  0  0  0  0
 13 12  1  0  0  0  0
 13 14  2  0  0  0  0
 15 16  2  0  0  0  0
 15 23  1  0  0  0  0
 15 14  1  0  0  0  0
 16 17  1  0  0  0  0
 16 12  1  0  0  0  0
 17 18  1  0  0  0  0
 17 21  2  0  0  0  0
 18 19  2  0  0  0  0
 19 20  1  0  0  0  0
 21 20  1  0  0  0  0
 21 22  1  0  0  0  0
 23 22  2  0  0  0  0
 24  3  1  0  0  0  0
 25  3  1  0  0  0  0
 26  4  1  0  0  0  0
 27  4  1  0  0  0  0
 28  6  1  0  0  0  0
 29  6  1  0  0  0  0
 30  7  1  0  0  0  0
 31  7  1  0  0  0  0
 32 13  1  0  0  0  0
 33 18  1  0  0  0  0
 34 19  1  0  0  0  0
 35 23  1  0  0  0  0
 36 20  1  0  0  0  0
 37  1  1  0  0  0  0
 38  1  1  0  0  0  0
 39  1  1  0  0  0  0
 40 11  1  0  0  0  0
 41 11  1  0  0  0  0
 42 11  1  0  0  0  0
M  END
>  <charge>
0

>  <pKi>
8.77

$$$$
