4E5W
 OpenBabel11252210453D

 57 61  0  0  1  0  0  0  0  0999 V2000
  -14.7398   37.8641   -3.8929 C   0  0  0  0  0  0  0  0  0  0  0  0
  -14.5794   36.3482   -3.8836 C   0  0  0  0  0  0  0  0  0  0  0  0
  -15.9071   35.6483   -4.1619 C   0  0  0  0  0  0  0  0  0  0  0  0
  -14.0595   35.8911   -2.4923 N   0  3  2  0  0  0  0  0  0  0  0  0
  -12.7737   36.5979   -2.0482 C   0  0  0  0  0  0  0  0  0  0  0  0
  -12.0812   35.6111   -1.1022 C   0  0  0  0  0  0  0  0  0  0  0  0
  -12.4669   34.2107   -1.6051 C   0  0  0  0  0  0  0  0  0  0  0  0
  -13.7409   34.3862   -2.4603 C   0  0  1  0  0  0  0  0  0  0  0  0
  -14.9230   33.6505   -1.8115 C   0  0  0  0  0  0  0  0  0  0  0  0
  -15.7230   34.3059   -1.1304 O   0  0  0  0  0  0  0  0  0  0  0  0
  -15.1029   32.3104   -2.0360 N   0  0  0  0  0  0  0  0  0  0  0  0
  -16.1583   31.5825   -1.2595 C   0  0  0  0  0  0  0  0  0  0  0  0
  -15.5411   30.4776   -0.3889 C   0  0  0  0  0  0  0  0  0  0  0  0
  -14.6882   29.5510   -1.2772 C   0  0  1  0  0  0  0  0  0  0  0  0
  -13.5481   30.3642   -1.9173 C   0  0  0  0  0  0  0  0  0  0  0  0
  -14.1742   31.4415   -2.8169 C   0  0  0  0  0  0  0  0  0  0  0  0
  -14.1775   28.3957   -0.5008 N   0  0  0  0  0  0  0  0  0  0  0  0
  -12.9332   28.2646    0.1669 C   0  0  0  0  0  0  0  0  0  0  0  0
  -12.7733   27.0345    0.6918 N   0  0  0  0  0  0  0  0  0  0  0  0
  -13.9415   26.3205    0.3754 C   0  0  0  0  0  0  0  0  0  0  0  0
  -14.8381   27.1697   -0.3590 C   0  0  0  0  0  0  0  0  0  0  0  0
  -16.0967   26.6682   -0.7471 C   0  0  0  0  0  0  0  0  0  0  0  0
  -17.2770   27.1423   -1.3918 C   0  0  0  0  0  0  0  0  0  0  0  0
  -18.1826   26.0861   -1.4295 C   0  0  0  0  0  0  0  0  0  0  0  0
  -17.6156   24.9518   -0.8291 N   0  0  0  0  0  0  0  0  0  0  0  0
  -16.3335   25.2890   -0.3911 C   0  0  0  0  0  0  0  0  0  0  0  0
  -15.4613   24.4449    0.2881 N   0  0  0  0  0  0  0  0  0  0  0  0
  -14.2942   24.9675    0.6662 C   0  0  0  0  0  0  0  0  0  0  0  0
  -13.5615   34.0386   -3.5140 H   0  0  0  0  0  0  0  0  0  0  0  0
  -18.0594   24.0469   -0.7224 H   0  0  0  0  0  0  0  0  0  0  0  0
  -13.8065   36.0410   -4.6430 H   0  0  0  0  0  0  0  0  0  0  0  0
  -14.8192   36.0784   -1.7679 H   0  0  0  0  0  0  0  0  0  0  0  0
  -12.1284   36.8052   -2.9423 H   0  0  0  0  0  0  0  0  0  0  0  0
  -13.0313   37.5610   -1.5368 H   0  0  0  0  0  0  0  0  0  0  0  0
  -12.4283   35.7602   -0.0503 H   0  0  0  0  0  0  0  0  0  0  0  0
  -10.9735   35.7559   -1.1262 H   0  0  0  0  0  0  0  0  0  0  0  0
  -11.6483   33.7835   -2.2358 H   0  0  0  0  0  0  0  0  0  0  0  0
  -12.6437   33.5213   -0.7441 H   0  0  0  0  0  0  0  0  0  0  0  0
  -16.7034   32.3174   -0.6049 H   0  0  0  0  0  0  0  0  0  0  0  0
  -16.8794   31.1443   -2.0018 H   0  0  0  0  0  0  0  0  0  0  0  0
  -14.9055   30.9273    0.4142 H   0  0  0  0  0  0  0  0  0  0  0  0
  -16.3618   29.8997    0.1044 H   0  0  0  0  0  0  0  0  0  0  0  0
  -15.3314   29.1205   -2.0997 H   0  0  0  0  0  0  0  0  0  0  0  0
  -12.9156   30.8500   -1.1338 H   0  0  0  0  0  0  0  0  0  0  0  0
  -12.8925   29.7031   -2.5391 H   0  0  0  0  0  0  0  0  0  0  0  0
  -14.7847   30.9602   -3.6343 H   0  0  0  0  0  0  0  0  0  0  0  0
  -13.3575   32.0365   -3.2957 H   0  0  0  0  0  0  0  0  0  0  0  0
  -12.2135   29.0758    0.2351 H   0  0  0  0  0  0  0  0  0  0  0  0
  -17.4471   28.1328   -1.7684 H   0  0  0  0  0  0  0  0  0  0  0  0
  -19.1861   26.0658   -1.8340 H   0  0  0  0  0  0  0  0  0  0  0  0
  -13.5948   24.3217    1.2159 H   0  0  0  0  0  0  0  0  0  0  0  0
  -15.7945   34.5442   -4.2479 H   0  0  0  0  0  0  0  0  0  0  0  0
  -16.6676   35.8784   -3.3776 H   0  0  0  0  0  0  0  0  0  0  0  0
  -16.3073   36.0169   -5.1425 H   0  0  0  0  0  0  0  0  0  0  0  0
  -13.7578   38.3882   -3.8359 H   0  0  0  0  0  0  0  0  0  0  0  0
  -15.2198   38.1651   -4.8609 H   0  0  0  0  0  0  0  0  0  0  0  0
  -15.3947   38.2207   -3.0639 H   0  0  0  0  0  0  0  0  0  0  0  0
  1  2  1  0  0  0  0
  2  3  1  0  0  0  0
  2  4  1  0  0  0  0
  4  8  1  0  0  0  0
  4 32  1  1  0  0  0
  5  6  1  0  0  0  0
  5  4  1  0  0  0  0
  6  7  1  0  0  0  0
  7  8  1  0  0  0  0
  8 29  1  6  0  0  0
  9  8  1  0  0  0  0
  9 11  1  0  0  0  0
  9 10  2  0  0  0  0
 12 13  1  0  0  0  0
 12 11  1  0  0  0  0
 13 14  1  0  0  0  0
 14 15  1  0  0  0  0
 14 17  1  0  0  0  0
 14 43  1  6  0  0  0
 15 16  1  0  0  0  0
 16 11  1  0  0  0  0
 18 17  1  0  0  0  0
 18 19  2  0  0  0  0
 20 21  2  0  0  0  0
 20 28  1  0  0  0  0
 20 19  1  0  0  0  0
 21 22  1  0  0  0  0
 21 17  1  0  0  0  0
 22 23  1  0  0  0  0
 22 26  2  0  0  0  0
 23 24  2  0  0  0  0
 24 25  1  0  0  0  0
 26 25  1  0  0  0  0
 26 27  1  0  0  0  0
 28 27  2  0  0  0  0
 30 25  1  0  0  0  0
 31  2  1  0  0  0  0
 33  5  1  0  0  0  0
 34  5  1  0  0  0  0
 35  6  1  0  0  0  0
 36  6  1  0  0  0  0
 37  7  1  0  0  0  0
 38  7  1  0  0  0  0
 39 12  1  0  0  0  0
 40 12  1  0  0  0  0
 41 13  1  0  0  0  0
 42 13  1  0  0  0  0
 44 15  1  0  0  0  0
 45 15  1  0  0  0  0
 46 16  1  0  0  0  0
 47 16  1  0  0  0  0
 48 18  1  0  0  0  0
 49 23  1  0  0  0  0
 50 24  1  0  0  0  0
 51 28  1  0  0  0  0
 52  3  1  0  0  0  0
 53  3  1  0  0  0  0
 54  3  1  0  0  0  0
 55  1  1  0  0  0  0
 56  1  1  0  0  0  0
 57  1  1  0  0  0  0
M  CHG  1   4   1
M  END
>  <charge>
1

>  <pKi>
7.66

$$$$
